* NGSPICE file created from DIV_CELL.eXMt - technology: sky130AXM0

.subckt DIV_CELL net1_ff2 fin P modo net1 net1_nand3 net2 net2_nand3 net1_ff1 net2_ff1
+ net4_ff1 net5_ff1 net4_ff2 net2_ff2 net5_ff2 2 1 3 modi fout 31 finb net3_ff1 net3_ff2
+ VDD GND


XM0 VDD.t14 2.t4 fout.t1 VDD.t13 sky130_fd_pr__pfet_01v8 ad=0p pd=0u as=0p ps=0u W=4 L=0.15
XM1 net1_ff1.t0 fout.t3 VDD.t18 VDD.t17 sky130_fd_pr__pfet_01v8 ad=0p pd=0u as=0p ps=0u W=4 L=0.15
XM2 GND.t7 modo.t2 net2_nand3.t1 GND sky130_fd_pr__nfet_01v8 ad=0p pd=0u as=0p ps=0u W=6 L=0.15
XM3 net2.t1 modi.t0 31.t1 GND sky130_fd_pr__nfet_01v8 ad=0p pd=0u as=0p ps=0u W=6 L=0.15
XM4 net4_ff1.t1 net3_ff1.t2 VDD.t12 VDD.t11 sky130_fd_pr__pfet_01v8 ad=0p pd=0u as=0p ps=0u W=4 L=0.15
XM5 net1_nand3.t0 P.t0 2.t2 GND sky130_fd_pr__nfet_01v8 ad=0p pd=0u as=0p ps=0u W=6 L=0.15
XM6 net5_ff2.t0 net3_ff2.t2 GND.t0 GND sky130_fd_pr__nfet_01v8 ad=0p pd=0u as=0p ps=0u W=2 L=0.15
XM7 GND.t11 31.t3 3.t1 GND sky130_fd_pr__nfet_01v8 ad=0p pd=0u as=0p ps=0u W=2 L=0.15
XM8 net3_ff1.t1 finb.t2 net1_ff1.t1 VDD.t23 sky130_fd_pr__pfet_01v8 ad=0p pd=0u as=0p ps=0u W=4 L=0.15
XM9 VDD.t8 modi.t1 31.t2 VDD.t7 sky130_fd_pr__pfet_01v8 ad=0p pd=0u as=0p ps=0u W=4 L=0.15
XM10 net1.t1 2.t5 fout.t0 GND sky130_fd_pr__nfet_01v8 ad=0p pd=0u as=0p ps=0u W=6 L=0.15
XM11 GND.t10 fin.t0 finb.t0 GND sky130_fd_pr__nfet_01v8 ad=0p pd=0u as=0p ps=0u W=2 L=0.15
XM12 VDD.t22 1.t2 fout.t2 VDD.t21 sky130_fd_pr__pfet_01v8 ad=0p pd=0u as=0p ps=0u W=4 L=0.15
XM13 net3_ff1.t0 fin.t1 net2_ff1.t0 GND sky130_fd_pr__nfet_01v8 ad=0p pd=0u as=0p ps=0u W=2 L=0.15
XM14 modo.t1 finb.t3 net5_ff2.t1 GND sky130_fd_pr__nfet_01v8 ad=0p pd=0u as=0p ps=0u W=2 L=0.15
XM15 VDD.t10 fin.t2 2.t1 VDD.t9 sky130_fd_pr__pfet_01v8 ad=0p pd=0u as=0p ps=0u W=4 L=0.15
XM16 GND.t1 1.t3 net1.t0 GND sky130_fd_pr__nfet_01v8 ad=0p pd=0u as=0p ps=0u W=6 L=0.15
XM17 modo.t0 fin.t3 net4_ff2.t1 VDD.t5 sky130_fd_pr__pfet_01v8 ad=0p pd=0u as=0p ps=0u W=4 L=0.15
XM18 net3_ff2.t0 fin.t4 net2_ff2.t1 GND.t2 sky130_fd_pr__nfet_01v8 ad=0p pd=0u as=0p ps=0u W=2 L=0.15
XM19 1.t0 fin.t5 net4_ff1.t0 VDD.t0 sky130_fd_pr__pfet_01v8 ad=0p pd=0u as=0p ps=0u W=4 L=0.15
XM20 net2_ff1.t1 fout.t4 GND.t9 GND sky130_fd_pr__nfet_01v8 ad=0p pd=0u as=0p ps=0u W=2 L=0.15
XM21 GND.t8 fout.t5 net2.t0 GND sky130_fd_pr__nfet_01v8 ad=0p pd=0u as=0p ps=0u W=6 L=0.15
XM22 1.t1 finb.t4 net5_ff1.t0 GND.t12 sky130_fd_pr__nfet_01v8 ad=0p pd=0u as=0p ps=0u W=2 L=0.15
XM23 net2_nand3.t0 fin.t6 net1_nand3.t1 GND sky130_fd_pr__nfet_01v8 ad=0p pd=0u as=0p ps=0u W=6 L=0.15
XM24 net5_ff1.t1 net3_ff1.t3 GND.t4 GND.t3 sky130_fd_pr__nfet_01v8 ad=0p pd=0u as=0p ps=0u W=2 L=0.15
XM25 net3_ff2.t1 finb.t5 net4_ff2 VDD.t6 sky130_fd_pr__pfet_01v8 ad=0p pd=0u as=2.32e+12p ps=1.716e+07u W=4 L=0.15
XM26 finb.t1 fin.t7 VDD.t27 VDD.t26 sky130_fd_pr__pfet_01v8 ad=0p pd=0u as=0p ps=0u W=4 L=0.15
XM27 net4_ff2.t3 net3_ff2.t3 VDD.t2 VDD.t1 sky130_fd_pr__pfet_01v8 ad=0p pd=0u as=0p ps=0u W=4 L=0.15
XM28 VDD.t4 modo.t3 2.t0 VDD.t3 sky130_fd_pr__pfet_01v8 ad=0p pd=0u as=0p ps=0u W=4 L=0.15
XM29 net4_ff2 3.t2 VDD.t29 VDD.t28 sky130_fd_pr__pfet_01v8 ad=0p pd=0u as=0p ps=0u W=4 L=0.15
XM30 net2_ff2.t0 3.t3 GND.t6 GND.t5 sky130_fd_pr__nfet_01v8 ad=0p pd=0u as=0p ps=0u W=2 L=0.15
XM31 VDD.t25 P.t1 2.t3 VDD.t24 sky130_fd_pr__pfet_01v8 ad=0p pd=0u as=0p ps=0u W=4 L=0.15
XM32 VDD.t16 fout.t6 31.t0 VDD.t15 sky130_fd_pr__pfet_01v8 ad=0p pd=0u as=0p ps=0u W=4 L=0.15
XM33 3.t0 31.t4 VDD.t20 VDD.t19 sky130_fd_pr__pfet_01v8 ad=0p pd=0u as=0p ps=0u W=4 L=0.15
R0 2.n0 2.t5 1040.28
R1 2.n0 2.t4 794.529
R2 2.n188 2.n187 13.176
R3 2.n336 2.t0 11.614
R4 2.n336 2.t1 11.298
R5 2.n337 2.t3 10.376
R6 2.n8 2.n6 9.3
R7 2.n310 2.n309 9.3
R8 2.n56 2.n55 9.3
R9 2.n58 2.n57 9.3
R10 2.n115 2.n114 9.3
R11 2.n112 2.n111 9.3
R12 2.n70 2.n69 9.3
R13 2.n68 2.n67 9.3
R14 2.n194 2.n193 9.3
R15 2.n93 2.n92 9.3
R16 2.n101 2.n100 9.3
R17 2.n104 2.n103 9.3
R18 2.n224 2.n223 9.3
R19 2.n221 2.n220 9.3
R20 2.n305 2.n304 9.3
R21 2.n303 2.n302 9.3
R22 2.n296 2.n295 8.097
R23 2.n103 2.n102 5.457
R24 2.n223 2.n222 5.08
R25 2.n294 2.n293 4.65
R26 2.n233 2.n232 4.65
R27 2.n315 2.n308 4.5
R28 2.n289 2.n288 4.5
R29 2.n282 2.n281 4.5
R30 2.n213 2.n212 4.5
R31 2.n203 2.n202 4.5
R32 2.n190 2.n189 4.5
R33 2.n166 2.n165 4.5
R34 2.n98 2.n90 4.5
R35 2.n121 2.n120 4.5
R36 2.n66 2.n65 4.5
R37 2.n78 2.n77 4.5
R38 2.n85 2.n84 4.5
R39 2.n129 2.n128 4.5
R40 2.n109 2.n108 4.5
R41 2.n275 2.n274 4.5
R42 2.n54 2.n53 4.5
R43 2.n324 2.n321 4.5
R44 2.n11 2.n10 4.5
R45 2.n77 2.n75 4.314
R46 2.n128 2.n125 3.944
R47 2.n288 2.n287 3.937
R48 2.n274 2.n273 3.567
R49 2.n234 2.n227 3.033
R50 2.n298 2.n297 3.033
R51 2.n295 2.t2 2.9
R52 2.n127 2.n126 2.258
R53 2.n272 2.n271 2.258
R54 2.n83 2.n82 1.882
R55 2.n84 2.n83 1.882
R56 2.n280 2.n279 1.882
R57 2 2.n338 1.829
R58 2 2.n0 1.566
R59 2.n274 2.n272 1.505
R60 2.n281 2.n280 1.505
R61 2.n316 2.n315 1.5
R62 2.n167 2.n166 1.5
R63 2.n204 2.n203 1.5
R64 2.n235 2.n234 1.5
R65 2.n214 2.n213 1.5
R66 2.n325 2.n324 1.5
R67 2.n12 2.n11 1.5
R68 2.n338 2.n335 1.477
R69 2.n53 2.n52 1.129
R70 2.n128 2.n127 1.129
R71 2.n120 2.n119 1.129
R72 2.n130 2.n129 1.042
R73 2.n338 2.n337 1.022
R74 2.n147 2.n146 0.853
R75 2.n237 2.n236 0.853
R76 2.n331 2.n330 0.853
R77 2.n24 2.n23 0.853
R78 2.n10 2.n9 0.752
R79 2.n202 2.n201 0.752
R80 2.n212 2.n211 0.752
R81 2.n288 2.n286 0.752
R82 2.n308 2.n307 0.752
R83 2.n321 2.n320 0.752
R84 2.n14 2.n13 0.717
R85 2.n193 2.n192 0.536
R86 2.n92 2.n91 0.536
R87 2.n114 2.n113 0.475
R88 2.n232 2.n231 0.475
R89 2.n297 2.n296 0.382
R90 2.n64 2.n63 0.382
R91 2.n65 2.n64 0.376
R92 2.n77 2.n76 0.376
R93 2.n108 2.n107 0.376
R94 2.n90 2.n89 0.376
R95 2.n165 2.n164 0.376
R96 2.n189 2.n188 0.376
R97 2.n52 2.n51 0.349
R98 2.n307 2.n306 0.349
R99 2.n337 2.n336 0.316
R100 2.n105 2.n104 0.047
R101 2.n95 2.n94 0.047
R102 2.n184 2.n183 0.047
R103 2.n197 2.n196 0.047
R104 2.n225 2.n224 0.047
R105 2.n312 2.n311 0.047
R106 2.n291 2.n290 0.043
R107 2.n260 2.n259 0.043
R108 2.n74 2.n73 0.041
R109 2.n41 2.n40 0.041
R110 2.n300 2.n299 0.035
R111 2.n168 2.n167 0.035
R112 2.n173 2.n172 0.035
R113 2.n266 2.n265 0.035
R114 2.n61 2.n60 0.034
R115 2.n182 2.n181 0.034
R116 2.n186 2.n185 0.034
R117 2.n303 2.n301 0.034
R118 2.n21 2.n20 0.034
R119 2.n19 2.n18 0.034
R120 2.n137 2.n136 0.034
R121 2.n144 2.n143 0.034
R122 2.n204 2.n180 0.034
R123 2.n206 2.n205 0.034
R124 2.n219 2.n218 0.034
R125 2.n268 2.n267 0.034
R126 2.n59 2.n58 0.032
R127 2.n234 2.n233 0.032
R128 2.n298 2.n294 0.032
R129 2.n142 2.n141 0.032
R130 2.n316 2.n268 0.032
R131 2.n26 2.n25 0.031
R132 2.n37 2.n36 0.031
R133 2.n149 2.n148 0.031
R134 2.n160 2.n159 0.031
R135 2.n239 2.n238 0.031
R136 2.n250 2.n249 0.031
R137 2.n333 2.n332 0.031
R138 2.n68 2.n66 0.03
R139 2.n112 2.n110 0.03
R140 2.n97 2.n96 0.03
R141 2.n199 2.n198 0.03
R142 2.n313 2.n312 0.03
R143 2.n22 2.n21 0.03
R144 2.n16 2.n15 0.03
R145 2.n140 2.n139 0.03
R146 2.n178 2.n177 0.03
R147 2.n207 2.n206 0.03
R148 2.n263 2.n262 0.03
R149 2.n330 2.n329 0.03
R150 2.n11 2.n8 0.028
R151 2.n49 2.n48 0.028
R152 2.n72 2.n71 0.028
R153 2.n87 2.n86 0.028
R154 2.n129 2.n88 0.028
R155 2.n118 2.n117 0.028
R156 2.n234 2.n226 0.028
R157 2.n278 2.n277 0.028
R158 2.n292 2.n291 0.028
R159 2.n315 2.n305 0.028
R160 2.n12 2.n4 0.028
R161 2.n39 2.n38 0.028
R162 2.n46 2.n45 0.028
R163 2.n130 2.n47 0.028
R164 2.n135 2.n134 0.028
R165 2.n145 2.n144 0.028
R166 2.n162 2.n161 0.028
R167 2.n175 2.n174 0.028
R168 2.n236 2.n235 0.028
R169 2.n255 2.n254 0.028
R170 2.n261 2.n260 0.028
R171 2.n326 2.n325 0.028
R172 2.n30 2.n29 0.027
R173 2.n33 2.n32 0.027
R174 2.n153 2.n152 0.027
R175 2.n156 2.n155 0.027
R176 2.n243 2.n242 0.027
R177 2.n246 2.n245 0.027
R178 2.n56 2.n54 0.026
R179 2.n109 2.n106 0.026
R180 2.n229 2.n228 0.026
R181 2.n276 2.n275 0.026
R182 2.n132 2.n131 0.026
R183 2.n146 2.n138 0.026
R184 2.n217 2.n216 0.026
R185 2.n253 2.n252 0.026
R186 2.n258 2.n257 0.026
R187 2.n328 2.n327 0.026
R188 2.n13 2.n12 0.024
R189 2.n116 2.n115 0.024
R190 2.n233 2.n230 0.024
R191 2.n3 2.n2 0.024
R192 2.n43 2.n42 0.024
R193 2.n138 2.n137 0.024
R194 2.n171 2.n170 0.024
R195 2.n214 2.n208 0.024
R196 2.n80 2.n79 0.022
R197 2.n106 2.n105 0.022
R198 2.n194 2.n191 0.022
R199 2.n230 2.n229 0.022
R200 2.n285 2.n284 0.022
R201 2.n2 2.n1 0.022
R202 2.n146 2.n145 0.022
R203 2.n170 2.n169 0.022
R204 2.n235 2.n219 0.022
R205 2.n218 2.n217 0.022
R206 2.n123 2.n122 0.02
R207 2.n121 2.n118 0.02
R208 2.n117 2.n116 0.02
R209 2.n226 2.n225 0.02
R210 2.n210 2.n209 0.02
R211 2.n23 2.n22 0.02
R212 2.n136 2.n135 0.02
R213 2.n236 2.n207 0.02
R214 2.n329 2.n328 0.02
R215 2.n325 2.n319 0.02
R216 2.n24 2.n14 0.019
R217 2.n25 2.n24 0.019
R218 2.n147 2.n37 0.019
R219 2.n148 2.n147 0.019
R220 2.n237 2.n160 0.019
R221 2.n238 2.n237 0.019
R222 2.n331 2.n250 0.019
R223 2.n332 2.n331 0.019
R224 2.n294 2.n292 0.018
R225 2.n44 2.n43 0.018
R226 2.n330 2.n316 0.018
R227 2.n71 2.n70 0.017
R228 2.n99 2.n98 0.017
R229 2.n96 2.n95 0.017
R230 2.n323 2.n322 0.017
R231 2.n131 2.n130 0.017
R232 2.n134 2.n133 0.017
R233 2.n143 2.n142 0.017
R234 2.n141 2.n140 0.017
R235 2.n216 2.n215 0.017
R236 2.n257 2.n256 0.017
R237 2.n262 2.n261 0.017
R238 2.n319 2.n318 0.017
R239 2.n50 2.n49 0.015
R240 2.n60 2.n59 0.015
R241 2.n88 2.n87 0.015
R242 2.n198 2.n197 0.015
R243 2.n203 2.n200 0.015
R244 2.n277 2.n276 0.015
R245 2.n282 2.n278 0.015
R246 2.n314 2.n313 0.015
R247 2.n20 2.n19 0.015
R248 2.n18 2.n17 0.015
R249 2.n47 2.n46 0.015
R250 2.n177 2.n176 0.015
R251 2.n180 2.n179 0.015
R252 2.n205 2.n204 0.015
R253 2.n254 2.n253 0.015
R254 2.n256 2.n255 0.015
R255 2.n62 2.n61 0.013
R256 2.n86 2.n85 0.013
R257 2.n101 2.n99 0.013
R258 2.n299 2.n298 0.013
R259 2.n301 2.n300 0.013
R260 2.n45 2.n44 0.013
R261 2.n265 2.n264 0.013
R262 2.n267 2.n266 0.013
R263 2.n335 2.n334 0.013
R264 2.n31 2.n30 0.012
R265 2.n32 2.n31 0.012
R266 2.n154 2.n153 0.012
R267 2.n155 2.n154 0.012
R268 2.n244 2.n243 0.012
R269 2.n245 2.n244 0.012
R270 2.n124 2.n123 0.011
R271 2.n28 2.n27 0.011
R272 2.n35 2.n34 0.011
R273 2.n151 2.n150 0.011
R274 2.n158 2.n157 0.011
R275 2.n241 2.n240 0.011
R276 2.n248 2.n247 0.011
R277 2.n8 2.n7 0.009
R278 2.n81 2.n80 0.009
R279 2.n85 2.n81 0.009
R280 2.n183 2.n182 0.009
R281 2.n284 2.n283 0.009
R282 2.n4 2.n3 0.009
R283 2.n169 2.n168 0.009
R284 2.n78 2.n74 0.007
R285 2.n166 2.n163 0.007
R286 2.n185 2.n184 0.007
R287 2.n191 2.n190 0.007
R288 2.n283 2.n282 0.007
R289 2.n311 2.n310 0.007
R290 2.n42 2.n41 0.007
R291 2.n167 2.n162 0.007
R292 2.n172 2.n171 0.007
R293 2.n174 2.n173 0.007
R294 2.n327 2.n326 0.007
R295 2.n318 2.n317 0.007
R296 2.n27 2.n26 0.006
R297 2.n29 2.n28 0.006
R298 2.n34 2.n33 0.006
R299 2.n36 2.n35 0.006
R300 2.n150 2.n149 0.006
R301 2.n152 2.n151 0.006
R302 2.n157 2.n156 0.006
R303 2.n159 2.n158 0.006
R304 2.n240 2.n239 0.006
R305 2.n242 2.n241 0.006
R306 2.n247 2.n246 0.006
R307 2.n249 2.n248 0.006
R308 2.n334 2.n333 0.006
R309 2.n54 2.n50 0.005
R310 2.n58 2.n56 0.005
R311 2.n129 2.n124 0.005
R312 2.n122 2.n121 0.005
R313 2.n94 2.n93 0.005
R314 2.n195 2.n194 0.005
R315 2.n270 2.n269 0.005
R316 2.n290 2.n289 0.005
R317 2.n215 2.n214 0.005
R318 2.n259 2.n258 0.005
R319 2.n11 2.n5 0.003
R320 2.n203 2.n199 0.003
R321 2.n224 2.n221 0.003
R322 2.n213 2.n210 0.003
R323 2.n289 2.n285 0.003
R324 2.n305 2.n303 0.003
R325 2.n315 2.n314 0.003
R326 2.n324 2.n323 0.003
R327 2.n133 2.n132 0.003
R328 2.n264 2.n263 0.003
R329 2.n66 2.n62 0.001
R330 2.n70 2.n68 0.001
R331 2.n73 2.n72 0.001
R332 2.n79 2.n78 0.001
R333 2.n115 2.n112 0.001
R334 2.n110 2.n109 0.001
R335 2.n104 2.n101 0.001
R336 2.n98 2.n97 0.001
R337 2.n190 2.n186 0.001
R338 2.n196 2.n195 0.001
R339 2.n275 2.n270 0.001
R340 2.n17 2.n16 0.001
R341 2.n40 2.n39 0.001
R342 2.n176 2.n175 0.001
R343 2.n179 2.n178 0.001
R344 2.n252 2.n251 0.001
R345 fout.n8 fout.t5 1037.29
R346 fout.n9 fout.t6 797.225
R347 fout.n378 fout.t3 732.331
R348 fout.n393 fout.t4 397.315
R349 fout.n218 fout.n217 13.176
R350 fout.n30 fout.t2 11.72
R351 fout.n30 fout.t1 10.993
R352 fout.n38 fout.n36 9.3
R353 fout.n340 fout.n339 9.3
R354 fout.n86 fout.n85 9.3
R355 fout.n88 fout.n87 9.3
R356 fout.n145 fout.n144 9.3
R357 fout.n142 fout.n141 9.3
R358 fout.n100 fout.n99 9.3
R359 fout.n98 fout.n97 9.3
R360 fout.n224 fout.n223 9.3
R361 fout.n123 fout.n122 9.3
R362 fout.n131 fout.n130 9.3
R363 fout.n134 fout.n133 9.3
R364 fout.n249 fout.n248 9.3
R365 fout.n246 fout.n245 9.3
R366 fout.n335 fout.n334 9.3
R367 fout.n333 fout.n332 9.3
R368 fout.n326 fout.n325 8.097
R369 fout.n133 fout.n132 5.457
R370 fout.n248 fout.n247 5.08
R371 fout.n324 fout.n323 4.65
R372 fout.n263 fout.n262 4.65
R373 fout.n345 fout.n338 4.5
R374 fout.n319 fout.n318 4.5
R375 fout.n312 fout.n311 4.5
R376 fout.n257 fout.n256 4.5
R377 fout.n233 fout.n232 4.5
R378 fout.n220 fout.n219 4.5
R379 fout.n196 fout.n195 4.5
R380 fout.n128 fout.n120 4.5
R381 fout.n151 fout.n150 4.5
R382 fout.n96 fout.n95 4.5
R383 fout.n108 fout.n107 4.5
R384 fout.n115 fout.n114 4.5
R385 fout.n159 fout.n158 4.5
R386 fout.n139 fout.n138 4.5
R387 fout.n305 fout.n304 4.5
R388 fout.n84 fout.n83 4.5
R389 fout.n354 fout.n351 4.5
R390 fout.n41 fout.n40 4.5
R391 fout.n107 fout.n105 4.314
R392 fout.n158 fout.n155 3.944
R393 fout.n318 fout.n317 3.937
R394 fout.n304 fout.n303 3.567
R395 fout.n264 fout.n252 3.033
R396 fout.n328 fout.n327 3.033
R397 fout.n325 fout.t0 2.9
R398 fout.n157 fout.n156 2.258
R399 fout.n302 fout.n301 2.258
R400 fout.n113 fout.n112 1.882
R401 fout.n114 fout.n113 1.882
R402 fout.n310 fout.n309 1.882
R403 fout.n366 fout.n30 1.516
R404 fout.n304 fout.n302 1.505
R405 fout.n311 fout.n310 1.505
R406 fout.n346 fout.n345 1.5
R407 fout.n197 fout.n196 1.5
R408 fout.n234 fout.n233 1.5
R409 fout.n265 fout.n264 1.5
R410 fout.n355 fout.n354 1.5
R411 fout.n42 fout.n41 1.5
R412 fout.n22 fout.n8 1.388
R413 fout.n10 fout.n9 1.354
R414 fout.n395 fout.n393 1.354
R415 fout.n379 fout.n378 1.354
R416 fout.n396 fout.n395 1.142
R417 fout.n397 fout.n396 1.138
R418 fout.n380 fout.n379 1.137
R419 fout.n406 fout.n405 1.137
R420 fout.n371 fout.n370 1.137
R421 fout.n402 fout.n401 1.137
R422 fout.n386 fout.n385 1.137
R423 fout.n408 fout.n407 1.136
R424 fout.n382 fout.n381 1.136
R425 fout.n83 fout.n82 1.129
R426 fout.n158 fout.n157 1.129
R427 fout.n150 fout.n149 1.129
R428 fout.n160 fout.n159 1.042
R429 fout.n177 fout.n176 0.853
R430 fout.n267 fout.n266 0.853
R431 fout.n361 fout.n360 0.853
R432 fout.n54 fout.n53 0.853
R433 fout.n410 fout.n29 0.827
R434 fout.n40 fout.n39 0.752
R435 fout.n232 fout.n231 0.752
R436 fout.n256 fout.n255 0.752
R437 fout.n318 fout.n316 0.752
R438 fout.n338 fout.n337 0.752
R439 fout.n351 fout.n350 0.752
R440 fout.n44 fout.n43 0.717
R441 fout.n366 fout.n365 0.69
R442 fout.n367 fout.n366 0.68
R443 fout.n223 fout.n222 0.536
R444 fout.n122 fout.n121 0.536
R445 fout.n144 fout.n143 0.475
R446 fout.n262 fout.n261 0.475
R447 fout.n410 fout.n409 0.471
R448 fout.n23 fout.n22 0.44
R449 fout.n327 fout.n326 0.382
R450 fout.n94 fout.n93 0.382
R451 fout.n95 fout.n94 0.376
R452 fout.n107 fout.n106 0.376
R453 fout.n138 fout.n137 0.376
R454 fout.n120 fout.n119 0.376
R455 fout.n195 fout.n194 0.376
R456 fout.n219 fout.n218 0.376
R457 fout.n82 fout.n81 0.349
R458 fout.n337 fout.n336 0.349
R459 fout fout.n410 0.124
R460 fout.n393 fout.n392 0.083
R461 fout.n378 fout.n377 0.083
R462 fout.n8 fout.n7 0.076
R463 fout.n4 fout.n3 0.059
R464 fout.n135 fout.n134 0.047
R465 fout.n125 fout.n124 0.047
R466 fout.n214 fout.n213 0.047
R467 fout.n227 fout.n226 0.047
R468 fout.n250 fout.n249 0.047
R469 fout.n342 fout.n341 0.047
R470 fout.n321 fout.n320 0.043
R471 fout.n290 fout.n289 0.043
R472 fout.n104 fout.n103 0.041
R473 fout.n71 fout.n70 0.041
R474 fout.n330 fout.n329 0.035
R475 fout.n198 fout.n197 0.035
R476 fout.n203 fout.n202 0.035
R477 fout.n296 fout.n295 0.035
R478 fout.n91 fout.n90 0.034
R479 fout.n212 fout.n211 0.034
R480 fout.n216 fout.n215 0.034
R481 fout.n333 fout.n331 0.034
R482 fout.n51 fout.n50 0.034
R483 fout.n49 fout.n48 0.034
R484 fout.n167 fout.n166 0.034
R485 fout.n174 fout.n173 0.034
R486 fout.n234 fout.n210 0.034
R487 fout.n236 fout.n235 0.034
R488 fout.n244 fout.n243 0.034
R489 fout.n298 fout.n297 0.034
R490 fout.n401 fout.n400 0.032
R491 fout.n18 fout.n17 0.032
R492 fout.n17 fout.n16 0.032
R493 fout.n89 fout.n88 0.032
R494 fout.n264 fout.n263 0.032
R495 fout.n328 fout.n324 0.032
R496 fout.n172 fout.n171 0.032
R497 fout.n346 fout.n298 0.032
R498 fout.n22 fout.n21 0.032
R499 fout.n56 fout.n55 0.031
R500 fout.n67 fout.n66 0.031
R501 fout.n179 fout.n178 0.031
R502 fout.n190 fout.n189 0.031
R503 fout.n269 fout.n268 0.031
R504 fout.n280 fout.n279 0.031
R505 fout.n363 fout.n362 0.031
R506 fout.n12 fout.n11 0.03
R507 fout.n98 fout.n96 0.03
R508 fout.n142 fout.n140 0.03
R509 fout.n127 fout.n126 0.03
R510 fout.n229 fout.n228 0.03
R511 fout.n343 fout.n342 0.03
R512 fout.n52 fout.n51 0.03
R513 fout.n46 fout.n45 0.03
R514 fout.n170 fout.n169 0.03
R515 fout.n208 fout.n207 0.03
R516 fout.n237 fout.n236 0.03
R517 fout.n293 fout.n292 0.03
R518 fout.n360 fout.n359 0.03
R519 fout.n392 fout.n391 0.028
R520 fout.n390 fout.n389 0.028
R521 fout.n375 fout.n374 0.028
R522 fout.n377 fout.n376 0.028
R523 fout.n385 fout.n384 0.028
R524 fout.n401 fout.n399 0.028
R525 fout.n405 fout.n404 0.028
R526 fout.n370 fout.n368 0.028
R527 fout.n21 fout.n20 0.028
R528 fout.n19 fout.n18 0.028
R529 fout.n16 fout.n15 0.028
R530 fout.n14 fout.n13 0.028
R531 fout.n41 fout.n38 0.028
R532 fout.n79 fout.n78 0.028
R533 fout.n102 fout.n101 0.028
R534 fout.n117 fout.n116 0.028
R535 fout.n159 fout.n118 0.028
R536 fout.n148 fout.n147 0.028
R537 fout.n264 fout.n251 0.028
R538 fout.n308 fout.n307 0.028
R539 fout.n322 fout.n321 0.028
R540 fout.n345 fout.n335 0.028
R541 fout.n42 fout.n34 0.028
R542 fout.n69 fout.n68 0.028
R543 fout.n76 fout.n75 0.028
R544 fout.n160 fout.n77 0.028
R545 fout.n165 fout.n164 0.028
R546 fout.n175 fout.n174 0.028
R547 fout.n192 fout.n191 0.028
R548 fout.n205 fout.n204 0.028
R549 fout.n266 fout.n265 0.028
R550 fout.n285 fout.n284 0.028
R551 fout.n291 fout.n290 0.028
R552 fout.n356 fout.n355 0.028
R553 fout.n60 fout.n59 0.027
R554 fout.n63 fout.n62 0.027
R555 fout.n183 fout.n182 0.027
R556 fout.n186 fout.n185 0.027
R557 fout.n273 fout.n272 0.027
R558 fout.n276 fout.n275 0.027
R559 fout.n7 fout.n6 0.026
R560 fout.n5 fout.n4 0.026
R561 fout.n3 fout.n2 0.026
R562 fout.n1 fout.n0 0.026
R563 fout.n86 fout.n84 0.026
R564 fout.n139 fout.n136 0.026
R565 fout.n259 fout.n258 0.026
R566 fout.n306 fout.n305 0.026
R567 fout.n162 fout.n161 0.026
R568 fout.n176 fout.n168 0.026
R569 fout.n242 fout.n241 0.026
R570 fout.n283 fout.n282 0.026
R571 fout.n288 fout.n287 0.026
R572 fout.n358 fout.n357 0.026
R573 fout.n43 fout.n42 0.024
R574 fout.n146 fout.n145 0.024
R575 fout.n263 fout.n260 0.024
R576 fout.n33 fout.n32 0.024
R577 fout.n73 fout.n72 0.024
R578 fout.n168 fout.n167 0.024
R579 fout.n201 fout.n200 0.024
R580 fout.n239 fout.n238 0.024
R581 fout.n26 fout.n25 0.023
R582 fout.n110 fout.n109 0.022
R583 fout.n136 fout.n135 0.022
R584 fout.n224 fout.n221 0.022
R585 fout.n260 fout.n259 0.022
R586 fout.n258 fout.n257 0.022
R587 fout.n315 fout.n314 0.022
R588 fout.n32 fout.n31 0.022
R589 fout.n176 fout.n175 0.022
R590 fout.n200 fout.n199 0.022
R591 fout.n265 fout.n244 0.022
R592 fout.n243 fout.n242 0.022
R593 fout.n153 fout.n152 0.02
R594 fout.n151 fout.n148 0.02
R595 fout.n147 fout.n146 0.02
R596 fout.n251 fout.n250 0.02
R597 fout.n254 fout.n253 0.02
R598 fout.n53 fout.n52 0.02
R599 fout.n166 fout.n165 0.02
R600 fout.n266 fout.n237 0.02
R601 fout.n359 fout.n358 0.02
R602 fout.n355 fout.n349 0.02
R603 fout.n54 fout.n44 0.019
R604 fout.n55 fout.n54 0.019
R605 fout.n177 fout.n67 0.019
R606 fout.n178 fout.n177 0.019
R607 fout.n267 fout.n190 0.019
R608 fout.n268 fout.n267 0.019
R609 fout.n361 fout.n280 0.019
R610 fout.n362 fout.n361 0.019
R611 fout.n324 fout.n322 0.018
R612 fout.n74 fout.n73 0.018
R613 fout.n360 fout.n346 0.018
R614 fout.n395 fout.n394 0.017
R615 fout.n385 fout.n383 0.017
R616 fout.n370 fout.n369 0.017
R617 fout.n379 fout.n373 0.017
R618 fout.n13 fout.n12 0.017
R619 fout.n11 fout.n10 0.017
R620 fout.n101 fout.n100 0.017
R621 fout.n129 fout.n128 0.017
R622 fout.n126 fout.n125 0.017
R623 fout.n353 fout.n352 0.017
R624 fout.n161 fout.n160 0.017
R625 fout.n164 fout.n163 0.017
R626 fout.n173 fout.n172 0.017
R627 fout.n171 fout.n170 0.017
R628 fout.n241 fout.n240 0.017
R629 fout.n287 fout.n286 0.017
R630 fout.n292 fout.n291 0.017
R631 fout.n349 fout.n348 0.017
R632 fout.n402 fout.n398 0.016
R633 fout.n406 fout.n403 0.016
R634 fout.n391 fout.n390 0.015
R635 fout.n376 fout.n375 0.015
R636 fout.n20 fout.n19 0.015
R637 fout.n15 fout.n14 0.015
R638 fout.n80 fout.n79 0.015
R639 fout.n90 fout.n89 0.015
R640 fout.n118 fout.n117 0.015
R641 fout.n228 fout.n227 0.015
R642 fout.n233 fout.n230 0.015
R643 fout.n307 fout.n306 0.015
R644 fout.n312 fout.n308 0.015
R645 fout.n344 fout.n343 0.015
R646 fout.n50 fout.n49 0.015
R647 fout.n48 fout.n47 0.015
R648 fout.n77 fout.n76 0.015
R649 fout.n207 fout.n206 0.015
R650 fout.n210 fout.n209 0.015
R651 fout.n235 fout.n234 0.015
R652 fout.n284 fout.n283 0.015
R653 fout.n286 fout.n285 0.015
R654 fout.n6 fout.n5 0.013
R655 fout.n2 fout.n1 0.013
R656 fout.n92 fout.n91 0.013
R657 fout.n116 fout.n115 0.013
R658 fout.n131 fout.n129 0.013
R659 fout.n329 fout.n328 0.013
R660 fout.n331 fout.n330 0.013
R661 fout.n75 fout.n74 0.013
R662 fout.n295 fout.n294 0.013
R663 fout.n297 fout.n296 0.013
R664 fout.n365 fout.n364 0.013
R665 fout.n407 fout.n402 0.012
R666 fout.n407 fout.n406 0.012
R667 fout.n61 fout.n60 0.012
R668 fout.n62 fout.n61 0.012
R669 fout.n184 fout.n183 0.012
R670 fout.n185 fout.n184 0.012
R671 fout.n274 fout.n273 0.012
R672 fout.n275 fout.n274 0.012
R673 fout.n388 fout.n387 0.011
R674 fout.n381 fout.n372 0.011
R675 fout.n154 fout.n153 0.011
R676 fout.n58 fout.n57 0.011
R677 fout.n65 fout.n64 0.011
R678 fout.n181 fout.n180 0.011
R679 fout.n188 fout.n187 0.011
R680 fout.n271 fout.n270 0.011
R681 fout.n278 fout.n277 0.011
R682 fout.n24 fout.n23 0.01
R683 fout.n25 fout.n24 0.01
R684 fout.n28 fout.n27 0.009
R685 fout.n38 fout.n37 0.009
R686 fout.n111 fout.n110 0.009
R687 fout.n115 fout.n111 0.009
R688 fout.n213 fout.n212 0.009
R689 fout.n314 fout.n313 0.009
R690 fout.n34 fout.n33 0.009
R691 fout.n199 fout.n198 0.009
R692 fout.n108 fout.n104 0.007
R693 fout.n196 fout.n193 0.007
R694 fout.n215 fout.n214 0.007
R695 fout.n221 fout.n220 0.007
R696 fout.n313 fout.n312 0.007
R697 fout.n341 fout.n340 0.007
R698 fout.n72 fout.n71 0.007
R699 fout.n197 fout.n192 0.007
R700 fout.n202 fout.n201 0.007
R701 fout.n204 fout.n203 0.007
R702 fout.n357 fout.n356 0.007
R703 fout.n348 fout.n347 0.007
R704 fout.n387 fout.n386 0.006
R705 fout.n372 fout.n371 0.006
R706 fout.n381 fout.n380 0.006
R707 fout.n57 fout.n56 0.006
R708 fout.n59 fout.n58 0.006
R709 fout.n64 fout.n63 0.006
R710 fout.n66 fout.n65 0.006
R711 fout.n180 fout.n179 0.006
R712 fout.n182 fout.n181 0.006
R713 fout.n187 fout.n186 0.006
R714 fout.n189 fout.n188 0.006
R715 fout.n270 fout.n269 0.006
R716 fout.n272 fout.n271 0.006
R717 fout.n277 fout.n276 0.006
R718 fout.n279 fout.n278 0.006
R719 fout.n364 fout.n363 0.006
R720 fout.n27 fout.n26 0.005
R721 fout.n29 fout.n28 0.005
R722 fout.n84 fout.n80 0.005
R723 fout.n88 fout.n86 0.005
R724 fout.n159 fout.n154 0.005
R725 fout.n152 fout.n151 0.005
R726 fout.n124 fout.n123 0.005
R727 fout.n225 fout.n224 0.005
R728 fout.n300 fout.n299 0.005
R729 fout.n320 fout.n319 0.005
R730 fout.n240 fout.n239 0.005
R731 fout.n289 fout.n288 0.005
R732 fout.n409 fout.n408 0.004
R733 fout.n382 fout.n367 0.003
R734 fout.n41 fout.n35 0.003
R735 fout.n233 fout.n229 0.003
R736 fout.n249 fout.n246 0.003
R737 fout.n257 fout.n254 0.003
R738 fout.n319 fout.n315 0.003
R739 fout.n335 fout.n333 0.003
R740 fout.n345 fout.n344 0.003
R741 fout.n354 fout.n353 0.003
R742 fout.n163 fout.n162 0.003
R743 fout.n294 fout.n293 0.003
R744 fout.n396 fout.n388 0.003
R745 fout.n408 fout.n397 0.002
R746 fout.n397 fout.n382 0.002
R747 fout.n96 fout.n92 0.001
R748 fout.n100 fout.n98 0.001
R749 fout.n103 fout.n102 0.001
R750 fout.n109 fout.n108 0.001
R751 fout.n145 fout.n142 0.001
R752 fout.n140 fout.n139 0.001
R753 fout.n134 fout.n131 0.001
R754 fout.n128 fout.n127 0.001
R755 fout.n220 fout.n216 0.001
R756 fout.n226 fout.n225 0.001
R757 fout.n305 fout.n300 0.001
R758 fout.n47 fout.n46 0.001
R759 fout.n70 fout.n69 0.001
R760 fout.n206 fout.n205 0.001
R761 fout.n209 fout.n208 0.001
R762 fout.n282 fout.n281 0.001
R763 VDD.t5 VDD.t7 282.282
R764 VDD.t11 VDD.t23 244.603
R765 VDD.t6 VDD.t1 243.985
R766 VDD.t21 VDD.t26 192.1
R767 VDD.n13 VDD.t0 180.981
R768 VDD.t1 VDD.t5 176.657
R769 VDD.t28 VDD.t6 176.657
R770 VDD.t0 VDD.t11 176.04
R771 VDD.t23 VDD.t17 176.04
R772 VDD.t15 VDD.t19 174.187
R773 VDD.t7 VDD.t15 160.598
R774 VDD.t13 VDD.t21 160.598
R775 VDD.n180 VDD.t24 158.127
R776 VDD.t3 VDD.t13 150.097
R777 VDD.t9 VDD.t3 123.537
R778 VDD.t24 VDD.t9 123.537
R779 VDD.n13 VDD.t28 109.947
R780 VDD.n101 VDD.n100 56.47
R781 VDD.n85 VDD.n84 56.47
R782 VDD.n252 VDD.n251 56.47
R783 VDD.n268 VDD.n267 56.47
R784 VDD.n112 VDD.n111 49.411
R785 VDD.n74 VDD.n73 49.411
R786 VDD.n241 VDD.n240 49.411
R787 VDD.n279 VDD.n278 49.411
R788 VDD.n18 VDD.n17 45.882
R789 VDD.n123 VDD.n122 42.352
R790 VDD.n63 VDD.n62 42.352
R791 VDD.n230 VDD.n229 42.352
R792 VDD.n290 VDD.n289 42.352
R793 VDD.n134 VDD.n133 35.294
R794 VDD.n52 VDD.n51 35.294
R795 VDD.n219 VDD.n218 35.294
R796 VDD.n301 VDD.n300 35.294
R797 VDD.n145 VDD.n144 28.235
R798 VDD.n41 VDD.n40 28.235
R799 VDD.n208 VDD.n207 28.235
R800 VDD.n312 VDD.n311 28.235
R801 VDD.n156 VDD.n155 21.176
R802 VDD.n30 VDD.n29 21.176
R803 VDD.n197 VDD.n196 21.176
R804 VDD.n323 VDD.n322 21.176
R805 VDD.n185 VDD.n184 20.411
R806 VDD.n333 VDD.n332 20.411
R807 VDD.n166 VDD.n165 20.411
R808 VDD.n182 VDD.n180 17.939
R809 VDD.n15 VDD.n13 17.939
R810 VDD.n196 VDD.n195 17.569
R811 VDD.n322 VDD.n321 17.569
R812 VDD.n29 VDD.n28 17.569
R813 VDD.n155 VDD.n154 17.569
R814 VDD.n207 VDD.n206 14.627
R815 VDD.n311 VDD.n310 14.627
R816 VDD.n40 VDD.n39 14.627
R817 VDD.n144 VDD.n143 14.627
R818 VDD.n167 VDD.n166 14.117
R819 VDD.n186 VDD.n185 14.117
R820 VDD.n334 VDD.n333 14.117
R821 VDD.n19 VDD.n18 12.531
R822 VDD.n218 VDD.n217 11.58
R823 VDD.n300 VDD.n299 11.58
R824 VDD.n51 VDD.n50 11.58
R825 VDD.n133 VDD.n132 11.58
R826 VDD.n20 VDD.n19 9.93
R827 VDD.n354 VDD.t12 9.536
R828 VDD.n0 VDD.t2 9.53
R829 VDD.n5 VDD.t8 9.51
R830 VDD.n176 VDD.t29 9.407
R831 VDD.n348 VDD.t27 9.393
R832 VDD.n347 VDD.t18 9.38
R833 VDD.n2 VDD.t20 9.363
R834 VDD.n2 VDD.t16 9.358
R835 VDD.n349 VDD.t22 9.358
R836 VDD.n350 VDD.t14 9.358
R837 VDD.n346 VDD.t4 9.358
R838 VDD.n345 VDD.t10 9.358
R839 VDD.n344 VDD.t25 9.358
R840 VDD.n190 VDD.n189 9.3
R841 VDD.n201 VDD.n200 9.3
R842 VDD.n212 VDD.n211 9.3
R843 VDD.n223 VDD.n222 9.3
R844 VDD.n234 VDD.n233 9.3
R845 VDD.n245 VDD.n244 9.3
R846 VDD.n256 VDD.n255 9.3
R847 VDD.n263 VDD.n262 9.3
R848 VDD.n274 VDD.n273 9.3
R849 VDD.n285 VDD.n284 9.3
R850 VDD.n296 VDD.n295 9.3
R851 VDD.n307 VDD.n306 9.3
R852 VDD.n318 VDD.n317 9.3
R853 VDD.n329 VDD.n328 9.3
R854 VDD.n338 VDD.n337 9.3
R855 VDD.n258 VDD.n257 9.3
R856 VDD.n247 VDD.n246 9.3
R857 VDD.n236 VDD.n235 9.3
R858 VDD.n225 VDD.n224 9.3
R859 VDD.n214 VDD.n213 9.3
R860 VDD.n203 VDD.n202 9.3
R861 VDD.n192 VDD.n191 9.3
R862 VDD.n261 VDD.n260 9.3
R863 VDD.n272 VDD.n271 9.3
R864 VDD.n283 VDD.n282 9.3
R865 VDD.n294 VDD.n293 9.3
R866 VDD.n305 VDD.n304 9.3
R867 VDD.n316 VDD.n315 9.3
R868 VDD.n327 VDD.n326 9.3
R869 VDD.n340 VDD.n339 9.3
R870 VDD.n188 VDD.n187 9.3
R871 VDD.n187 VDD.n186 9.3
R872 VDD.n199 VDD.n198 9.3
R873 VDD.n198 VDD.n197 9.3
R874 VDD.n210 VDD.n209 9.3
R875 VDD.n209 VDD.n208 9.3
R876 VDD.n221 VDD.n220 9.3
R877 VDD.n220 VDD.n219 9.3
R878 VDD.n232 VDD.n231 9.3
R879 VDD.n231 VDD.n230 9.3
R880 VDD.n243 VDD.n242 9.3
R881 VDD.n242 VDD.n241 9.3
R882 VDD.n254 VDD.n253 9.3
R883 VDD.n253 VDD.n252 9.3
R884 VDD.n270 VDD.n269 9.3
R885 VDD.n269 VDD.n268 9.3
R886 VDD.n281 VDD.n280 9.3
R887 VDD.n280 VDD.n279 9.3
R888 VDD.n292 VDD.n291 9.3
R889 VDD.n291 VDD.n290 9.3
R890 VDD.n303 VDD.n302 9.3
R891 VDD.n302 VDD.n301 9.3
R892 VDD.n314 VDD.n313 9.3
R893 VDD.n313 VDD.n312 9.3
R894 VDD.n325 VDD.n324 9.3
R895 VDD.n324 VDD.n323 9.3
R896 VDD.n336 VDD.n335 9.3
R897 VDD.n335 VDD.n334 9.3
R898 VDD.n342 VDD.n341 9.3
R899 VDD.n173 VDD.n172 9.3
R900 VDD.n162 VDD.n161 9.3
R901 VDD.n151 VDD.n150 9.3
R902 VDD.n140 VDD.n139 9.3
R903 VDD.n129 VDD.n128 9.3
R904 VDD.n118 VDD.n117 9.3
R905 VDD.n107 VDD.n106 9.3
R906 VDD.n96 VDD.n95 9.3
R907 VDD.n89 VDD.n88 9.3
R908 VDD.n78 VDD.n77 9.3
R909 VDD.n67 VDD.n66 9.3
R910 VDD.n56 VDD.n55 9.3
R911 VDD.n45 VDD.n44 9.3
R912 VDD.n34 VDD.n33 9.3
R913 VDD.n23 VDD.n22 9.3
R914 VDD.n25 VDD.n24 9.3
R915 VDD.n21 VDD.n20 9.3
R916 VDD.n36 VDD.n35 9.3
R917 VDD.n32 VDD.n31 9.3
R918 VDD.n31 VDD.n30 9.3
R919 VDD.n47 VDD.n46 9.3
R920 VDD.n43 VDD.n42 9.3
R921 VDD.n42 VDD.n41 9.3
R922 VDD.n58 VDD.n57 9.3
R923 VDD.n54 VDD.n53 9.3
R924 VDD.n53 VDD.n52 9.3
R925 VDD.n69 VDD.n68 9.3
R926 VDD.n65 VDD.n64 9.3
R927 VDD.n64 VDD.n63 9.3
R928 VDD.n80 VDD.n79 9.3
R929 VDD.n76 VDD.n75 9.3
R930 VDD.n75 VDD.n74 9.3
R931 VDD.n91 VDD.n90 9.3
R932 VDD.n87 VDD.n86 9.3
R933 VDD.n86 VDD.n85 9.3
R934 VDD.n94 VDD.n93 9.3
R935 VDD.n103 VDD.n102 9.3
R936 VDD.n102 VDD.n101 9.3
R937 VDD.n105 VDD.n104 9.3
R938 VDD.n114 VDD.n113 9.3
R939 VDD.n113 VDD.n112 9.3
R940 VDD.n116 VDD.n115 9.3
R941 VDD.n125 VDD.n124 9.3
R942 VDD.n124 VDD.n123 9.3
R943 VDD.n127 VDD.n126 9.3
R944 VDD.n136 VDD.n135 9.3
R945 VDD.n135 VDD.n134 9.3
R946 VDD.n138 VDD.n137 9.3
R947 VDD.n147 VDD.n146 9.3
R948 VDD.n146 VDD.n145 9.3
R949 VDD.n149 VDD.n148 9.3
R950 VDD.n158 VDD.n157 9.3
R951 VDD.n157 VDD.n156 9.3
R952 VDD.n160 VDD.n159 9.3
R953 VDD.n169 VDD.n168 9.3
R954 VDD.n168 VDD.n167 9.3
R955 VDD.n171 VDD.n170 9.3
R956 VDD.n175 VDD.n174 9.3
R957 VDD.n182 VDD.n181 8.679
R958 VDD.n15 VDD.n14 8.679
R959 VDD.n229 VDD.n228 8.422
R960 VDD.n289 VDD.n288 8.422
R961 VDD.n62 VDD.n61 8.422
R962 VDD.n122 VDD.n121 8.422
R963 VDD.n260 VDD.n259 6.787
R964 VDD.n93 VDD.n92 6.787
R965 VDD.n240 VDD.n239 5.147
R966 VDD.n278 VDD.n277 5.147
R967 VDD.n73 VDD.n72 5.147
R968 VDD.n111 VDD.n110 5.147
R969 VDD.n253 VDD.n249 3.103
R970 VDD.n269 VDD.n265 3.103