* NGSPICE file created from DIVIDER.ext - technology: sky130A

.subckt DIVIDER P0 P1 P2 P7 P6 P5 P4 P3 fin modo modi fout0 modi0 fout1 modi1 modi2
+ fout2 modi3 fout3 fout4 modi4 fout5 modi5 fout6 modi6 fout VDD GND
X0 a_n3749_8439# fout2.t3 a_n4036_12366# GND sky130_fd_pr__nfet_01v8 ad=5.8e+11p pd=4.58e+06u as=1.16e+12p ps=9.16e+06u w=2e+06u l=150000u
X1 a_n13930_2482# fout5.t3 a_n14130_2482# GND.t42 sky130_fd_pr__nfet_01v8 ad=3.48e+12p pd=2.516e+07u as=3.48e+12p ps=2.516e+07u w=6e+06u l=150000u
X2 fout6.t2 a_n14423_5865.t4 a_n14633_2483# GND.t57 sky130_fd_pr__nfet_01v8 ad=0p pd=0u as=3.48e+12p ps=2.516e+07u w=6e+06u l=150000u
X3 VDD.t122 fin.t0 a_n24539_11543.t0 VDD.t121 sky130_fd_pr__pfet_01v8 ad=0p pd=0u as=0p ps=0u w=4e+06u l=150000u
X4 GND.t97 fout6.t3 a_n15556_2475# GND.t96 sky130_fd_pr__nfet_01v8 ad=0p pd=0u as=1.16e+12p ps=9.16e+06u w=2e+06u l=150000u
X5 a_n15024_8436# a_n15419_8436# VDD.t149 VDD.t148 sky130_fd_pr__pfet_01v8 ad=2.32e+12p pd=1.716e+07u as=0p ps=0u w=4e+06u l=150000u
X6 a_n18023_11547# a_n18753_11548.t4 fout1.t1 GND sky130_fd_pr__nfet_01v8 ad=3.48e+12p pd=2.516e+07u as=0p ps=0u w=6e+06u l=150000u
X7 a_n5255_5996# a_n6002_2899.t2 a_n5699_5899# VDD.t144 sky130_fd_pr__pfet_01v8 ad=2.32e+12p pd=1.716e+07u as=1.16e+12p ps=8.58e+06u w=4e+06u l=150000u
X8 a_n11277_8440# fout2.t4 VDD.t20 VDD.t19 sky130_fd_pr__pfet_01v8 ad=2.32e+12p pd=1.716e+07u as=0p ps=0u w=4e+06u l=150000u
X9 a_n11129_2476# fout4.t3 a_n11555_5898# GND.t121 sky130_fd_pr__nfet_01v8 ad=1.16e+12p pd=9.16e+06u as=5.8e+11p ps=4.58e+06u w=2e+06u l=150000u
X10 GND a_n20158_11542.t3 a_n21540_12270.t1 GND sky130_fd_pr__nfet_01v8 ad=6.96e+13p pd=5.2176e+08u as=0p ps=0u w=2e+06u l=150000u
X11 GND a_n14372_11547.t3 a_n15755_12275.t1 GND sky130_fd_pr__nfet_01v8 ad=0p pd=0u as=0p ps=0u w=2e+06u l=150000u
X12 a_n17810_11459# a_n17562_12353.t2 a_n16468_12355# GND sky130_fd_pr__nfet_01v8 ad=5.8e+11p pd=4.58e+06u as=1.16e+12p ps=9.16e+06u w=2e+06u l=150000u
X13 a_n10992_8440# fout1.t3 a_n11283_12359# GND sky130_fd_pr__nfet_01v8 ad=5.8e+11p pd=4.58e+06u as=1.16e+12p ps=9.16e+06u w=2e+06u l=150000u
X14 a_n10596_8440# a_n10992_8440# VDD.t42 VDD.t41 sky130_fd_pr__pfet_01v8 ad=2.32e+12p pd=1.716e+07u as=0p ps=0u w=4e+06u l=150000u
X15 a_n9889_12279.t0 a_n8507_11550.t3 VDD.t233 VDD.t232 sky130_fd_pr__pfet_01v8 ad=0p pd=0u as=0p ps=0u w=4e+06u l=150000u
X16 a_n20386_2489# a_n22077_2481# GND.t85 GND.t84 sky130_fd_pr__nfet_01v8 ad=3.48e+12p pd=2.516e+07u as=0p ps=0u w=6e+06u l=150000u
X17 a_n15419_8436# a_n17562_12353.t3 a_n15705_8436# VDD.t0 sky130_fd_pr__pfet_01v8 ad=1.16e+12p pd=8.58e+06u as=2.32e+12p ps=1.716e+07u w=4e+06u l=150000u
X18 VDD.t193 a_n18722_2907.t3 a_n18744_6000.t0 VDD.t192 sky130_fd_pr__pfet_01v8 ad=0p pd=0u as=0p ps=0u w=4e+06u l=150000u
X19 VDD.t22 modi1.t2 a_n14372_11547.t0 VDD.t21 sky130_fd_pr__pfet_01v8 ad=0p pd=0u as=0p ps=0u w=4e+06u l=150000u
X20 a_n18744_6000.t1 a_n18722_2907.t4 GND.t44 GND sky130_fd_pr__nfet_01v8 ad=0p pd=0u as=0p ps=0u w=2e+06u l=150000u
X21 modi0.t1 fout0.t3 a_n15024_8436# VDD.t85 sky130_fd_pr__pfet_01v8 ad=0p pd=0u as=0p ps=0u w=4e+06u l=150000u
X22 a_n7001_2908.t1 modi4.t2 a_n6652_2485# GND sky130_fd_pr__nfet_01v8 ad=0p pd=0u as=3.48e+12p ps=2.516e+07u w=6e+06u l=150000u
X23 VDD.t64 a_n5699_5899# a_n5936_5996# VDD.t63 sky130_fd_pr__pfet_01v8 ad=0p pd=0u as=2.32e+12p ps=1.716e+07u w=4e+06u l=150000u
X24 GND modi1.t3 a_n12600_11551# GND sky130_fd_pr__nfet_01v8 ad=0p pd=0u as=3.48e+12p ps=2.516e+07u w=6e+06u l=150000u
X25 a_n14423_5865.t2 fout5.t4 VDD.t142 VDD.t141 sky130_fd_pr__pfet_01v8 ad=0p pd=0u as=0p ps=0u w=4e+06u l=150000u
X26 GND a_n2702_11550.t3 a_n4084_12278.t1 GND sky130_fd_pr__nfet_01v8 ad=0p pd=0u as=0p ps=0u w=2e+06u l=150000u
X27 a_n21491_8431# a_n21540_12270.t2 VDD.t84 VDD.t83 sky130_fd_pr__pfet_01v8 ad=2.32e+12p pd=1.716e+07u as=0p ps=0u w=4e+06u l=150000u
X28 a_n15419_8436# fout0.t4 a_n15707_12363# GND sky130_fd_pr__nfet_01v8 ad=5.8e+11p pd=4.58e+06u as=1.16e+12p ps=9.16e+06u w=2e+06u l=150000u
X29 GND fout1.t4 a_n14284_11547# GND sky130_fd_pr__nfet_01v8 ad=0p pd=0u as=3.48e+12p ps=2.516e+07u w=6e+06u l=150000u
X30 a_n22643_8431# fin.t1 a_n22934_12350# GND sky130_fd_pr__nfet_01v8 ad=5.8e+11p pd=4.58e+06u as=1.16e+12p ps=9.16e+06u w=2e+06u l=150000u
X31 a_n9554_8440# a_n11697_12356.t2 a_n9840_8440# VDD.t145 sky130_fd_pr__pfet_01v8 ad=1.16e+12p pd=8.58e+06u as=2.32e+12p ps=1.716e+07u w=4e+06u l=150000u
X32 VDD.t50 a_n23172_5903# a_n23409_6000# VDD.t49 sky130_fd_pr__pfet_01v8 ad=0p pd=0u as=2.32e+12p ps=1.716e+07u w=4e+06u l=150000u
X33 a_n2913_2485# a_n4604_2477# GND.t48 GND.t47 sky130_fd_pr__nfet_01v8 ad=3.48e+12p pd=2.516e+07u as=0p ps=0u w=6e+06u l=150000u
X34 GND modi2.t2 a_n6795_11551# GND sky130_fd_pr__nfet_01v8 ad=0p pd=0u as=3.48e+12p ps=2.516e+07u w=6e+06u l=150000u
X35 a_n23348_12347.t0 fin.t2 VDD.t120 VDD.t119 sky130_fd_pr__pfet_01v8 ad=0p pd=0u as=0p ps=0u w=4e+06u l=150000u
X36 a_n12857_2907.t2 modi5.t2 VDD.t46 VDD.t45 sky130_fd_pr__pfet_01v8 ad=0p pd=0u as=0p ps=0u w=4e+06u l=150000u
X37 a_n4516_2477# a_n6002_2899.t3 a_n4604_2477# GND.t87 sky130_fd_pr__nfet_01v8 ad=1.16e+12p pd=9.16e+06u as=5.8e+11p ps=4.58e+06u w=2e+06u l=150000u
X38 a_n24497_6006.t1 a_n24474_2912.t3 GND.t110 GND sky130_fd_pr__nfet_01v8 ad=0p pd=0u as=0p ps=0u w=2e+06u l=150000u
X39 GND a_n6140_11462# a_n6353_11550# GND sky130_fd_pr__nfet_01v8 ad=0p pd=0u as=3.48e+12p ps=2.516e+07u w=6e+06u l=150000u
X40 VDD.t235 a_n11944_11462# fout2.t2 VDD.t234 sky130_fd_pr__pfet_01v8 ad=0p pd=0u as=0p ps=0u w=4e+06u l=150000u
X41 VDD.t66 a_n24497_6006.t2 a_n22728_6000# VDD.t65 sky130_fd_pr__pfet_01v8 ad=0p pd=0u as=2.32e+12p ps=1.716e+07u w=4e+06u l=150000u
X42 GND.t92 a_n7023_6002.t2 a_n5273_2477# GND.t91 sky130_fd_pr__nfet_01v8 ad=0p pd=0u as=1.16e+12p ps=9.16e+06u w=2e+06u l=150000u
X43 a_n21540_12270.t0 a_n20158_11542.t4 VDD.t24 VDD.t23 sky130_fd_pr__pfet_01v8 ad=0p pd=0u as=0p ps=0u w=4e+06u l=150000u
X44 a_n3835_2477# fout3.t3 a_n4261_5899# GND.t102 sky130_fd_pr__nfet_01v8 ad=1.16e+12p pd=9.16e+06u as=5.8e+11p ps=4.58e+06u w=2e+06u l=150000u
X45 GND.t30 fout.t3 a_n21308_2481# GND.t29 sky130_fd_pr__nfet_01v8 ad=0p pd=0u as=1.16e+12p ps=9.16e+06u w=2e+06u l=150000u
X46 VDD.t87 fout0.t5 a_n18753_11548.t1 VDD.t86 sky130_fd_pr__pfet_01v8 ad=0p pd=0u as=0p ps=0u w=4e+06u l=150000u
X47 GND.t41 a_n5699_5899# a_n5954_2477# GND sky130_fd_pr__nfet_01v8 ad=0p pd=0u as=1.16e+12p ps=9.16e+06u w=2e+06u l=150000u
X48 a_n9841_12367# a_n9889_12279.t2 GND GND sky130_fd_pr__nfet_01v8 ad=1.16e+12p pd=9.16e+06u as=0p ps=0u w=2e+06u l=150000u
X49 VDD.t237 a_n17419_5897# a_n17657_5994# VDD.t236 sky130_fd_pr__pfet_01v8 ad=0p pd=0u as=2.32e+12p ps=1.716e+07u w=4e+06u l=150000u
X50 VDD.t140 fout5.t5 a_n9674_5995# VDD.t139 sky130_fd_pr__pfet_01v8 ad=0p pd=0u as=2.32e+12p ps=1.716e+07u w=4e+06u l=150000u
X51 a_n9554_8440# fout1.t5 a_n9841_12367# GND sky130_fd_pr__nfet_01v8 ad=5.8e+11p pd=4.58e+06u as=0p ps=0u w=2e+06u l=150000u
X52 a_n8558_5866.t0 modi4.t3 VDD.t107 VDD.t106 sky130_fd_pr__pfet_01v8 ad=0p pd=0u as=0p ps=0u w=4e+06u l=150000u
X53 VDD.t132 fout6.t4 a_n15538_5994# VDD.t131 sky130_fd_pr__pfet_01v8 ad=0p pd=0u as=2.32e+12p ps=1.716e+07u w=4e+06u l=150000u
X54 VDD.t166 a_n12888_11551.t4 fout2.t0 VDD.t165 sky130_fd_pr__pfet_01v8 ad=0p pd=0u as=0p ps=0u w=4e+06u l=150000u
X55 VDD.t95 modi2.t3 a_n7083_11551.t2 VDD.t94 sky130_fd_pr__pfet_01v8 ad=0p pd=0u as=0p ps=0u w=4e+06u l=150000u
X56 a_n12880_6001.t1 a_n12857_2907.t3 GND.t120 GND sky130_fd_pr__nfet_01v8 ad=0p pd=0u as=0p ps=0u w=2e+06u l=150000u
X57 a_n6353_11550# a_n7083_11551.t4 fout3.t1 GND sky130_fd_pr__nfet_01v8 ad=0p pd=0u as=0p ps=0u w=6e+06u l=150000u
X58 a_n20175_5871.t1 P7.t0 VDD.t105 VDD.t104 sky130_fd_pr__pfet_01v8 ad=0p pd=0u as=0p ps=0u w=4e+06u l=150000u
X59 a_n6002_2899.t0 fout3.t4 GND.t104 GND.t103 sky130_fd_pr__nfet_01v8 ad=0p pd=0u as=0p ps=0u w=2e+06u l=150000u
X60 fout5.t2 a_n10460_2476# VDD.t191 VDD.t190 sky130_fd_pr__pfet_01v8 ad=0p pd=0u as=0p ps=0u w=4e+06u l=150000u
X61 a_n16237_2475# a_n17722_2897.t2 a_n16325_2475# GND.t78 sky130_fd_pr__nfet_01v8 ad=1.16e+12p pd=9.16e+06u as=5.8e+11p ps=4.58e+06u w=2e+06u l=150000u
X62 a_n19682_2488# fout6.t5 a_n19882_2488# GND.t98 sky130_fd_pr__nfet_01v8 ad=3.48e+12p pd=2.516e+07u as=3.48e+12p ps=2.516e+07u w=6e+06u l=150000u
X63 a_n20815_12350# a_n21205_8431# GND GND sky130_fd_pr__nfet_01v8 ad=1.16e+12p pd=9.16e+06u as=0p ps=0u w=2e+06u l=150000u
X64 a_n20175_5871.t3 modi6.t2 VDD.t175 VDD.t174 sky130_fd_pr__pfet_01v8 ad=0p pd=0u as=0p ps=0u w=4e+06u l=150000u
X65 fout5.t0 a_n8558_5866.t4 a_n8769_2484# GND.t101 sky130_fd_pr__nfet_01v8 ad=0p pd=0u as=3.48e+12p ps=2.516e+07u w=6e+06u l=150000u
X66 a_n15556_2475# fout5.t6 a_n15981_5897# GND.t43 sky130_fd_pr__nfet_01v8 ad=0p pd=0u as=5.8e+11p ps=4.58e+06u w=2e+06u l=150000u
X67 a_n8419_11550# modi2.t4 a_n8507_11550.t1 GND sky130_fd_pr__nfet_01v8 ad=3.48e+12p pd=2.516e+07u as=0p ps=0u w=6e+06u l=150000u
X68 a_n18665_11548# P1.t0 a_n18753_11548.t3 GND sky130_fd_pr__nfet_01v8 ad=3.48e+12p pd=2.516e+07u as=0p ps=0u w=6e+06u l=150000u
X69 a_n17143_8436# fout1.t6 VDD.t185 VDD.t184 sky130_fd_pr__pfet_01v8 ad=2.32e+12p pd=1.716e+07u as=0p ps=0u w=4e+06u l=150000u
X70 a_n2209_2484# fout3.t5 a_n2409_2484# GND.t105 sky130_fd_pr__nfet_01v8 ad=3.48e+12p pd=2.516e+07u as=3.48e+12p ps=2.516e+07u w=6e+06u l=150000u
X71 GND fout1.t7 a_n11697_12356.t1 GND sky130_fd_pr__nfet_01v8 ad=0p pd=0u as=0p ps=0u w=2e+06u l=150000u
X72 VDD.t72 a_n24539_11543.t4 fout0.t1 VDD.t71 sky130_fd_pr__pfet_01v8 ad=0p pd=0u as=0p ps=0u w=4e+06u l=150000u
X73 a_n16462_8436# a_n16857_8436# VDD.t214 VDD.t213 sky130_fd_pr__pfet_01v8 ad=2.32e+12p pd=1.716e+07u as=0p ps=0u w=4e+06u l=150000u
X74 a_n18722_2907.t0 modi6.t3 VDD.t89 VDD.t88 sky130_fd_pr__pfet_01v8 ad=0p pd=0u as=0p ps=0u w=4e+06u l=150000u
X75 GND fout0.t6 a_n20070_11542# GND sky130_fd_pr__nfet_01v8 ad=0p pd=0u as=3.48e+12p ps=2.516e+07u w=6e+06u l=150000u
X76 a_n17149_12355# fout1.t8 GND GND sky130_fd_pr__nfet_01v8 ad=1.16e+12p pd=9.16e+06u as=0p ps=0u w=2e+06u l=150000u
X77 VDD.t187 a_n12857_2907.t4 a_n12880_6001.t0 VDD.t186 sky130_fd_pr__pfet_01v8 ad=0p pd=0u as=0p ps=0u w=4e+06u l=150000u
X78 GND fout3.t6 a_n2614_11550# GND sky130_fd_pr__nfet_01v8 ad=0p pd=0u as=3.48e+12p ps=2.516e+07u w=6e+06u l=150000u
X79 VDD.t157 a_n7083_11551.t5 fout3.t2 VDD.t156 sky130_fd_pr__pfet_01v8 ad=0p pd=0u as=0p ps=0u w=4e+06u l=150000u
X80 GND fout2.t5 a_n5892_12356.t1 GND sky130_fd_pr__nfet_01v8 ad=0p pd=0u as=0p ps=0u w=2e+06u l=150000u
X81 fout6.t0 a_n16325_2475# VDD.t38 VDD.t37 sky130_fd_pr__pfet_01v8 ad=0p pd=0u as=0p ps=0u w=4e+06u l=150000u
X82 a_n7001_2908.t2 fout4.t4 VDD.t32 VDD.t31 sky130_fd_pr__pfet_01v8 ad=0p pd=0u as=0p ps=0u w=4e+06u l=150000u
X83 a_n16857_8436# a_n17562_12353.t4 a_n17143_8436# VDD.t108 sky130_fd_pr__pfet_01v8 ad=1.16e+12p pd=8.58e+06u as=0p ps=0u w=4e+06u l=150000u
X84 a_n17562_12353.t0 fout0.t7 VDD.t26 VDD.t25 sky130_fd_pr__pfet_01v8 ad=0p pd=0u as=0p ps=0u w=4e+06u l=150000u
X85 VDD.t18 fout2.t6 a_n8507_11550.t0 VDD.t17 sky130_fd_pr__pfet_01v8 ad=0p pd=0u as=0p ps=0u w=4e+06u l=150000u
X86 a_n11112_5995# a_n11858_2898.t2 a_n11555_5898# VDD.t162 sky130_fd_pr__pfet_01v8 ad=2.32e+12p pd=1.716e+07u as=1.16e+12p ps=8.58e+06u w=4e+06u l=150000u
X87 a_n8266_2483# modi4.t4 GND.t5 GND.t4 sky130_fd_pr__nfet_01v8 ad=3.48e+12p pd=2.516e+07u as=0p ps=0u w=6e+06u l=150000u
X88 VDD.t206 fout1.t9 a_n12888_11551.t2 VDD.t205 sky130_fd_pr__pfet_01v8 ad=0p pd=0u as=0p ps=0u w=4e+06u l=150000u
X89 fout.t0 a_n20175_5871.t4 VDD.t110 VDD.t109 sky130_fd_pr__pfet_01v8 ad=0p pd=0u as=0p ps=0u w=4e+06u l=150000u
X90 a_n12857_2907.t0 fout5.t7 VDD.t138 VDD.t137 sky130_fd_pr__pfet_01v8 ad=0p pd=0u as=0p ps=0u w=4e+06u l=150000u
X91 a_n22253_12350# a_n22643_8431# GND GND sky130_fd_pr__nfet_01v8 ad=1.16e+12p pd=9.16e+06u as=0p ps=0u w=2e+06u l=150000u
X92 a_n4797_12358# a_n5187_8439# GND GND sky130_fd_pr__nfet_01v8 ad=1.16e+12p pd=9.16e+06u as=0p ps=0u w=2e+06u l=150000u
X93 a_n23475_2903.t1 fout6.t6 GND.t94 GND.t93 sky130_fd_pr__nfet_01v8 ad=0p pd=0u as=0p ps=0u w=2e+06u l=150000u
X94 a_n2702_5867.t0 fout3.t7 VDD.t177 VDD.t176 sky130_fd_pr__pfet_01v8 ad=0p pd=0u as=0p ps=0u w=4e+06u l=150000u
X95 a_n15707_12363# a_n15755_12275.t2 GND GND sky130_fd_pr__nfet_01v8 ad=0p pd=0u as=0p ps=0u w=2e+06u l=150000u
X96 a_n22928_8431# fout0.t8 VDD.t28 VDD.t27 sky130_fd_pr__pfet_01v8 ad=2.32e+12p pd=1.716e+07u as=0p ps=0u w=4e+06u l=150000u
X97 a_n21989_2481# a_n23475_2903.t2 a_n22077_2481# GND.t88 sky130_fd_pr__nfet_01v8 ad=1.16e+12p pd=9.16e+06u as=5.8e+11p ps=4.58e+06u w=2e+06u l=150000u
X98 VDD.t8 a_n10117_5898# a_n10355_5995# VDD.t7 sky130_fd_pr__pfet_01v8 ad=0p pd=0u as=2.32e+12p ps=1.716e+07u w=4e+06u l=150000u
X99 VDD.t70 a_n11555_5898# a_n11793_5995# VDD.t69 sky130_fd_pr__pfet_01v8 ad=0p pd=0u as=2.32e+12p ps=1.716e+07u w=4e+06u l=150000u
X100 a_n5954_2477# a_n6002_2899.t4 modi3.t1 GND sky130_fd_pr__nfet_01v8 ad=0p pd=0u as=0p ps=0u w=2e+06u l=150000u
X101 a_n21308_2481# fout6.t7 a_n21734_5903# GND.t128 sky130_fd_pr__nfet_01v8 ad=0p pd=0u as=5.8e+11p ps=4.58e+06u w=2e+06u l=150000u
X102 GND.t28 a_n23172_5903# a_n23427_2481# GND sky130_fd_pr__nfet_01v8 ad=0p pd=0u as=1.16e+12p ps=9.16e+06u w=2e+06u l=150000u
X103 VDD.t80 a_n12880_6001.t2 a_n11112_5995# VDD.t79 sky130_fd_pr__pfet_01v8 ad=0p pd=0u as=0p ps=0u w=4e+06u l=150000u
X104 a_n10602_12359# a_n10992_8440# GND GND sky130_fd_pr__nfet_01v8 ad=1.16e+12p pd=9.16e+06u as=0p ps=0u w=2e+06u l=150000u
X105 VDD.t130 fout6.t8 a_n23475_2903.t0 VDD.t129 sky130_fd_pr__pfet_01v8 ad=0p pd=0u as=0p ps=0u w=4e+06u l=150000u
X106 a_n9164_12359# a_n9554_8440# GND GND sky130_fd_pr__nfet_01v8 ad=1.16e+12p pd=9.16e+06u as=0p ps=0u w=2e+06u l=150000u
X107 fout4.t2 a_n2702_5867.t4 VDD.t204 VDD.t203 sky130_fd_pr__pfet_01v8 ad=0p pd=0u as=0p ps=0u w=4e+06u l=150000u
X108 VDD.t179 fout3.t8 a_n6002_2899.t1 VDD.t178 sky130_fd_pr__pfet_01v8 ad=0p pd=0u as=0p ps=0u w=4e+06u l=150000u
X109 a_n4036_12366# a_n4084_12278.t2 GND GND sky130_fd_pr__nfet_01v8 ad=0p pd=0u as=0p ps=0u w=2e+06u l=150000u
X110 a_n17810_11459# fout0.t9 a_n16462_8436# VDD.t198 sky130_fd_pr__pfet_01v8 ad=1.16e+12p pd=8.58e+06u as=0p ps=0u w=4e+06u l=150000u
X111 a_n18722_2907.t2 modi6.t4 a_n18372_2483# GND sky130_fd_pr__nfet_01v8 ad=0p pd=0u as=3.48e+12p ps=2.516e+07u w=6e+06u l=150000u
X112 a_n4498_5996# fout3.t9 a_n4604_2477# VDD.t180 sky130_fd_pr__pfet_01v8 ad=2.32e+12p pd=1.716e+07u as=1.16e+12p ps=8.58e+06u w=4e+06u l=150000u
X113 GND fout0.t10 a_n17562_12353.t1 GND sky130_fd_pr__nfet_01v8 ad=0p pd=0u as=0p ps=0u w=2e+06u l=150000u
X114 VDD.t101 modi0.t2 a_n20158_11542.t1 VDD.t100 sky130_fd_pr__pfet_01v8 ad=0p pd=0u as=0p ps=0u w=4e+06u l=150000u
X115 a_n24474_2912.t1 modi.t0 VDD.t74 VDD.t73 sky130_fd_pr__pfet_01v8 ad=0p pd=0u as=0p ps=0u w=4e+06u l=150000u
X116 a_n18465_11548# fout0.t11 a_n18665_11548# GND sky130_fd_pr__nfet_01v8 ad=3.48e+12p pd=2.516e+07u as=0p ps=0u w=6e+06u l=150000u
X117 modi2.t1 a_n5892_12356.t2 a_n3360_12358# GND sky130_fd_pr__nfet_01v8 ad=0p pd=0u as=1.16e+12p ps=9.16e+06u w=2e+06u l=150000u
X118 a_n3817_5996# a_n6002_2899.t5 a_n4261_5899# VDD.t217 sky130_fd_pr__pfet_01v8 ad=2.32e+12p pd=1.716e+07u as=1.16e+12p ps=8.58e+06u w=4e+06u l=150000u
X119 modo.t1 a_n23348_12347.t2 a_n20815_12350# GND sky130_fd_pr__nfet_01v8 ad=0p pd=0u as=0p ps=0u w=2e+06u l=150000u
X120 a_n10992_8440# a_n11697_12356.t3 a_n11277_8440# VDD.t173 sky130_fd_pr__pfet_01v8 ad=1.16e+12p pd=8.58e+06u as=0p ps=0u w=4e+06u l=150000u
X121 a_n12157_11550# a_n12888_11551.t5 fout2.t1 GND sky130_fd_pr__nfet_01v8 ad=3.48e+12p pd=2.516e+07u as=0p ps=0u w=6e+06u l=150000u
X122 a_n9840_8440# a_n9889_12279.t3 VDD.t48 VDD.t47 sky130_fd_pr__pfet_01v8 ad=0p pd=0u as=0p ps=0u w=4e+06u l=150000u
X123 a_n21972_6000# fout6.t9 a_n22077_2481# VDD.t128 sky130_fd_pr__pfet_01v8 ad=2.32e+12p pd=1.716e+07u as=1.16e+12p ps=8.58e+06u w=4e+06u l=150000u
X124 a_n14633_2483# a_n16325_2475# GND.t23 GND.t22 sky130_fd_pr__nfet_01v8 ad=0p pd=0u as=0p ps=0u w=6e+06u l=150000u
X125 a_n24451_11543# P0.t0 a_n24539_11543.t2 GND sky130_fd_pr__nfet_01v8 ad=3.48e+12p pd=2.516e+07u as=0p ps=0u w=6e+06u l=150000u
X126 a_n11944_11462# fout1.t10 a_n10596_8440# VDD.t207 sky130_fd_pr__pfet_01v8 ad=1.16e+12p pd=8.58e+06u as=0p ps=0u w=4e+06u l=150000u
X127 a_n17674_2475# a_n17722_2897.t3 modi5.t0 GND sky130_fd_pr__nfet_01v8 ad=1.16e+12p pd=9.16e+06u as=0p ps=0u w=2e+06u l=150000u
X128 a_n3360_12358# a_n3749_8439# GND GND sky130_fd_pr__nfet_01v8 ad=0p pd=0u as=0p ps=0u w=2e+06u l=150000u
X129 a_n11697_12356.t0 fout1.t11 VDD.t209 VDD.t208 sky130_fd_pr__pfet_01v8 ad=0p pd=0u as=0p ps=0u w=4e+06u l=150000u
X130 a_n18722_2907.t1 fout6.t10 VDD.t127 VDD.t126 sky130_fd_pr__pfet_01v8 ad=0p pd=0u as=0p ps=0u w=4e+06u l=150000u
X131 a_n14423_5865.t3 P6.t0 a_n13930_2482# GND.t135 sky130_fd_pr__nfet_01v8 ad=0p pd=0u as=0p ps=0u w=6e+06u l=150000u
X132 a_n24125_2489# fout.t4 GND.t31 GND sky130_fd_pr__nfet_01v8 ad=3.48e+12p pd=2.516e+07u as=0p ps=0u w=6e+06u l=150000u
X133 VDD.t197 fout0.t12 a_n20158_11542.t2 VDD.t196 sky130_fd_pr__pfet_01v8 ad=0p pd=0u as=0p ps=0u w=4e+06u l=150000u
X134 a_n21291_6000# a_n23475_2903.t3 a_n21734_5903# VDD.t215 sky130_fd_pr__pfet_01v8 ad=2.32e+12p pd=1.716e+07u as=1.16e+12p ps=8.58e+06u w=4e+06u l=150000u
X135 VDD.t151 modo.t2 a_n24539_11543.t1 VDD.t150 sky130_fd_pr__pfet_01v8 ad=0p pd=0u as=0p ps=0u w=4e+06u l=150000u
X136 a_n5273_2477# fout3.t10 a_n5699_5899# GND.t114 sky130_fd_pr__nfet_01v8 ad=0p pd=0u as=5.8e+11p ps=4.58e+06u w=2e+06u l=150000u
X137 GND.t154 a_n17419_5897# a_n17674_2475# GND sky130_fd_pr__nfet_01v8 ad=0p pd=0u as=0p ps=0u w=2e+06u l=150000u
X138 VDD.t155 a_n18753_11548.t5 fout1.t2 VDD.t154 sky130_fd_pr__pfet_01v8 ad=0p pd=0u as=0p ps=0u w=4e+06u l=150000u
X139 a_n4035_8439# a_n4084_12278.t3 VDD.t170 VDD.t169 sky130_fd_pr__pfet_01v8 ad=2.32e+12p pd=1.716e+07u as=0p ps=0u w=4e+06u l=150000u
X140 a_n16219_5994# fout5.t8 a_n16325_2475# VDD.t136 sky130_fd_pr__pfet_01v8 ad=2.32e+12p pd=1.716e+07u as=1.16e+12p ps=8.58e+06u w=4e+06u l=150000u
X141 GND.t69 fout5.t9 a_n9691_2476# GND.t68 sky130_fd_pr__nfet_01v8 ad=0p pd=0u as=1.16e+12p ps=9.16e+06u w=2e+06u l=150000u
X142 GND a_n23595_11454# a_n23808_11542# GND sky130_fd_pr__nfet_01v8 ad=0p pd=0u as=3.48e+12p ps=2.516e+07u w=6e+06u l=150000u
X143 a_n5473_8439# fout3.t11 VDD.t182 VDD.t181 sky130_fd_pr__pfet_01v8 ad=2.32e+12p pd=1.716e+07u as=0p ps=0u w=4e+06u l=150000u
X144 GND a_n11944_11462# a_n12157_11550# GND sky130_fd_pr__nfet_01v8 ad=0p pd=0u as=0p ps=0u w=6e+06u l=150000u
X145 a_n21205_8431# a_n23348_12347.t3 a_n21491_8431# VDD.t201 sky130_fd_pr__pfet_01v8 ad=1.16e+12p pd=8.58e+06u as=0p ps=0u w=4e+06u l=150000u
X146 a_n14284_11547# modi1.t4 a_n14372_11547.t2 GND sky130_fd_pr__nfet_01v8 ad=0p pd=0u as=0p ps=0u w=6e+06u l=150000u
X147 VDD.t239 P0.t1 a_n24539_11543.t3 VDD.t238 sky130_fd_pr__pfet_01v8 ad=0p pd=0u as=0p ps=0u w=4e+06u l=150000u
X148 a_n4792_8439# a_n5187_8439# VDD.t195 VDD.t194 sky130_fd_pr__pfet_01v8 ad=2.32e+12p pd=1.716e+07u as=0p ps=0u w=4e+06u l=150000u
X149 a_n3354_8439# a_n3749_8439# VDD.t2 VDD.t1 sky130_fd_pr__pfet_01v8 ad=2.32e+12p pd=1.716e+07u as=0p ps=0u w=4e+06u l=150000u
X150 a_n15538_5994# a_n17722_2897.t4 a_n15981_5897# VDD.t222 sky130_fd_pr__pfet_01v8 ad=0p pd=0u as=1.16e+12p ps=8.58e+06u w=4e+06u l=150000u
X151 VDD.t36 a_n21734_5903# a_n21972_6000# VDD.t35 sky130_fd_pr__pfet_01v8 ad=0p pd=0u as=0p ps=0u w=4e+06u l=150000u
X152 modo.t0 fin.t3 a_n20810_8431# VDD.t118 sky130_fd_pr__pfet_01v8 ad=0p pd=0u as=2.32e+12p ps=1.716e+07u w=4e+06u l=150000u
X153 a_n6652_2485# fout4.t5 GND.t18 GND sky130_fd_pr__nfet_01v8 ad=0p pd=0u as=0p ps=0u w=6e+06u l=150000u
X154 a_n17722_2897.t1 fout5.t10 GND.t71 GND.t70 sky130_fd_pr__nfet_01v8 ad=0p pd=0u as=0p ps=0u w=2e+06u l=150000u
X155 fout.t2 a_n22077_2481# VDD.t116 VDD.t115 sky130_fd_pr__pfet_01v8 ad=0p pd=0u as=0p ps=0u w=4e+06u l=150000u
X156 VDD.t76 P3.t0 a_n7083_11551.t1 VDD.t75 sky130_fd_pr__pfet_01v8 ad=0p pd=0u as=0p ps=0u w=4e+06u l=150000u
X157 a_n6140_11462# a_n5892_12356.t3 a_n4797_12358# GND sky130_fd_pr__nfet_01v8 ad=5.8e+11p pd=4.58e+06u as=0p ps=0u w=2e+06u l=150000u
X158 a_n3749_8439# a_n5892_12356.t4 a_n4035_8439# VDD.t55 sky130_fd_pr__pfet_01v8 ad=1.16e+12p pd=8.58e+06u as=0p ps=0u w=4e+06u l=150000u
X159 a_n21492_12358# a_n21540_12270.t3 GND GND sky130_fd_pr__nfet_01v8 ad=1.16e+12p pd=9.16e+06u as=0p ps=0u w=2e+06u l=150000u
X160 VDD.t114 a_n6140_11462# fout3.t0 VDD.t113 sky130_fd_pr__pfet_01v8 ad=0p pd=0u as=0p ps=0u w=4e+06u l=150000u
X161 a_n5892_12356.t0 fout2.t7 VDD.t16 VDD.t15 sky130_fd_pr__pfet_01v8 ad=0p pd=0u as=0p ps=0u w=4e+06u l=150000u
X162 a_n14423_5865.t1 P6.t1 VDD.t78 VDD.t77 sky130_fd_pr__pfet_01v8 ad=0p pd=0u as=0p ps=0u w=4e+06u l=150000u
X163 fout6.t1 a_n14423_5865.t5 VDD.t93 VDD.t92 sky130_fd_pr__pfet_01v8 ad=0p pd=0u as=0p ps=0u w=4e+06u l=150000u
X164 a_n7001_2908.t0 modi4.t5 VDD.t6 VDD.t5 sky130_fd_pr__pfet_01v8 ad=0p pd=0u as=0p ps=0u w=4e+06u l=150000u
X165 a_n16857_8436# fout0.t13 a_n17149_12355# GND sky130_fd_pr__nfet_01v8 ad=5.8e+11p pd=4.58e+06u as=0p ps=0u w=2e+06u l=150000u
X166 a_n15030_12355# a_n15419_8436# GND GND sky130_fd_pr__nfet_01v8 ad=1.16e+12p pd=9.16e+06u as=0p ps=0u w=2e+06u l=150000u
X167 a_n23427_2481# a_n23475_2903.t4 modi6.t0 GND sky130_fd_pr__nfet_01v8 ad=0p pd=0u as=0p ps=0u w=2e+06u l=150000u
X168 GND modi0.t3 a_n18465_11548# GND sky130_fd_pr__nfet_01v8 ad=0p pd=0u as=0p ps=0u w=6e+06u l=150000u
X169 a_n11944_11462# a_n11697_12356.t4 a_n10602_12359# GND sky130_fd_pr__nfet_01v8 ad=5.8e+11p pd=4.58e+06u as=0p ps=0u w=2e+06u l=150000u
X170 GND.t46 a_n24497_6006.t3 a_n22746_2481# GND.t45 sky130_fd_pr__nfet_01v8 ad=0p pd=0u as=1.16e+12p ps=9.16e+06u w=2e+06u l=150000u
X171 fout4.t0 a_n4604_2477# VDD.t68 VDD.t67 sky130_fd_pr__pfet_01v8 ad=0p pd=0u as=0p ps=0u w=4e+06u l=150000u
X172 a_n12857_2907.t1 modi5.t3 a_n12508_2484# GND sky130_fd_pr__nfet_01v8 ad=0p pd=0u as=3.48e+12p ps=2.516e+07u w=6e+06u l=150000u
X173 a_n18372_2483# fout6.t11 GND.t95 GND sky130_fd_pr__nfet_01v8 ad=0p pd=0u as=0p ps=0u w=6e+06u l=150000u
X174 a_n22746_2481# fout6.t12 a_n23172_5903# GND.t153 sky130_fd_pr__nfet_01v8 ad=0p pd=0u as=5.8e+11p ps=4.58e+06u w=2e+06u l=150000u
X175 VDD.t103 modi0.t4 a_n18753_11548.t2 VDD.t102 sky130_fd_pr__pfet_01v8 ad=0p pd=0u as=0p ps=0u w=4e+06u l=150000u
X176 a_n20070_11542# modi0.t5 a_n20158_11542.t0 GND sky130_fd_pr__nfet_01v8 ad=0p pd=0u as=0p ps=0u w=6e+06u l=150000u
X177 GND.t107 a_n15981_5897# a_n16237_2475# GND.t106 sky130_fd_pr__nfet_01v8 ad=0p pd=0u as=0p ps=0u w=2e+06u l=150000u
X178 a_n24251_11543# fin.t4 a_n24451_11543# GND sky130_fd_pr__nfet_01v8 ad=3.48e+12p pd=2.516e+07u as=0p ps=0u w=6e+06u l=150000u
X179 a_n6995_11551# P3.t1 a_n7083_11551.t3 GND sky130_fd_pr__nfet_01v8 ad=3.48e+12p pd=2.516e+07u as=0p ps=0u w=6e+06u l=150000u
X180 a_n15705_8436# a_n15755_12275.t3 VDD.t30 VDD.t29 sky130_fd_pr__pfet_01v8 ad=0p pd=0u as=0p ps=0u w=4e+06u l=150000u
X181 VDD.t172 a_n24474_2912.t4 a_n24497_6006.t0 VDD.t171 sky130_fd_pr__pfet_01v8 ad=0p pd=0u as=0p ps=0u w=4e+06u l=150000u
X182 a_n5187_8439# fout2.t8 a_n5478_12358# GND sky130_fd_pr__nfet_01v8 ad=5.8e+11p pd=4.58e+06u as=1.16e+12p ps=9.16e+06u w=2e+06u l=150000u
X183 VDD.t57 fout3.t12 a_n2702_11550.t0 VDD.t56 sky130_fd_pr__pfet_01v8 ad=0p pd=0u as=0p ps=0u w=4e+06u l=150000u
X184 a_n8558_5866.t2 fout4.t6 VDD.t34 VDD.t33 sky130_fd_pr__pfet_01v8 ad=0p pd=0u as=0p ps=0u w=4e+06u l=150000u
X185 VDD.t44 P1.t1 a_n18753_11548.t0 VDD.t43 sky130_fd_pr__pfet_01v8 ad=0p pd=0u as=0p ps=0u w=4e+06u l=150000u
X186 a_n5936_5996# fout3.t13 modi3.t0 VDD.t58 sky130_fd_pr__pfet_01v8 ad=0p pd=0u as=0p ps=0u w=4e+06u l=150000u
X187 modi0.t0 a_n17562_12353.t5 a_n15030_12355# GND sky130_fd_pr__nfet_01v8 ad=0p pd=0u as=0p ps=0u w=2e+06u l=150000u
X188 a_n11810_2476# a_n11858_2898.t3 modi4.t0 GND sky130_fd_pr__nfet_01v8 ad=1.16e+12p pd=9.16e+06u as=0p ps=0u w=2e+06u l=150000u
X189 a_n23595_11454# a_n23348_12347.t4 a_n22253_12350# GND sky130_fd_pr__nfet_01v8 ad=5.8e+11p pd=4.58e+06u as=0p ps=0u w=2e+06u l=150000u
X190 VDD.t54 a_n17810_11459# fout1.t0 VDD.t53 sky130_fd_pr__pfet_01v8 ad=0p pd=0u as=0p ps=0u w=4e+06u l=150000u
X191 a_n10372_2476# a_n11858_2898.t4 a_n10460_2476# GND.t115 sky130_fd_pr__nfet_01v8 ad=1.16e+12p pd=9.16e+06u as=5.8e+11p ps=4.58e+06u w=2e+06u l=150000u
X192 a_n2614_11550# modi3.t2 a_n2702_11550.t1 GND sky130_fd_pr__nfet_01v8 ad=0p pd=0u as=0p ps=0u w=6e+06u l=150000u
X193 a_n8769_2484# a_n10460_2476# GND.t125 GND.t124 sky130_fd_pr__nfet_01v8 ad=0p pd=0u as=0p ps=0u w=6e+06u l=150000u
X194 GND.t51 a_n12880_6001.t3 a_n11129_2476# GND.t50 sky130_fd_pr__nfet_01v8 ad=0p pd=0u as=0p ps=0u w=2e+06u l=150000u
X195 a_n20175_5871.t0 P7.t1 a_n19682_2488# GND.t155 sky130_fd_pr__nfet_01v8 ad=0p pd=0u as=0p ps=0u w=6e+06u l=150000u
X196 VDD.t14 fout2.t9 a_n7083_11551.t0 VDD.t13 sky130_fd_pr__pfet_01v8 ad=0p pd=0u as=0p ps=0u w=4e+06u l=150000u
X197 a_n23409_6000# fout6.t13 modi6.t1 VDD.t125 sky130_fd_pr__pfet_01v8 ad=0p pd=0u as=0p ps=0u w=4e+06u l=150000u
X198 a_n20175_5871.t2 fout6.t14 VDD.t124 VDD.t123 sky130_fd_pr__pfet_01v8 ad=0p pd=0u as=0p ps=0u w=4e+06u l=150000u
X199 GND.t7 a_n10117_5898# a_n10372_2476# GND.t6 sky130_fd_pr__nfet_01v8 ad=0p pd=0u as=0p ps=0u w=2e+06u l=150000u
X200 GND.t49 a_n11555_5898# a_n11810_2476# GND sky130_fd_pr__nfet_01v8 ad=0p pd=0u as=0p ps=0u w=2e+06u l=150000u
X201 a_n22247_8431# a_n22643_8431# VDD.t40 VDD.t39 sky130_fd_pr__pfet_01v8 ad=2.32e+12p pd=1.716e+07u as=0p ps=0u w=4e+06u l=150000u
X202 a_n12800_11551# P2.t0 a_n12888_11551.t0 GND sky130_fd_pr__nfet_01v8 ad=3.48e+12p pd=2.516e+07u as=0p ps=0u w=6e+06u l=150000u
X203 a_n4084_12278.t0 a_n2702_11550.t4 VDD.t189 VDD.t188 sky130_fd_pr__pfet_01v8 ad=0p pd=0u as=0p ps=0u w=4e+06u l=150000u
X204 a_n9691_2476# fout4.t7 a_n10117_5898# GND.t19 sky130_fd_pr__nfet_01v8 ad=0p pd=0u as=5.8e+11p ps=4.58e+06u w=2e+06u l=150000u
X205 a_n19882_2488# modi6.t5 GND.t134 GND.t133 sky130_fd_pr__nfet_01v8 ad=0p pd=0u as=0p ps=0u w=6e+06u l=150000u
X206 a_n22728_6000# a_n23475_2903.t5 a_n23172_5903# VDD.t216 sky130_fd_pr__pfet_01v8 ad=0p pd=0u as=1.16e+12p ps=8.58e+06u w=4e+06u l=150000u
X207 a_n2702_5867.t1 P4.t0 a_n2209_2484# GND.t86 sky130_fd_pr__nfet_01v8 ad=0p pd=0u as=0p ps=0u w=6e+06u l=150000u
X208 fout5.t1 a_n8558_5866.t5 VDD.t164 VDD.t163 sky130_fd_pr__pfet_01v8 ad=0p pd=0u as=0p ps=0u w=4e+06u l=150000u
X209 VDD.t225 fout4.t8 a_n11858_2898.t0 VDD.t224 sky130_fd_pr__pfet_01v8 ad=0p pd=0u as=0p ps=0u w=4e+06u l=150000u
X210 GND a_n17810_11459# a_n18023_11547# GND sky130_fd_pr__nfet_01v8 ad=0p pd=0u as=0p ps=0u w=6e+06u l=150000u
X211 modi1.t1 a_n11697_12356.t5 a_n9164_12359# GND sky130_fd_pr__nfet_01v8 ad=0p pd=0u as=0p ps=0u w=2e+06u l=150000u
X212 a_n17657_5994# fout5.t11 modi5.t1 VDD.t135 sky130_fd_pr__pfet_01v8 ad=0p pd=0u as=0p ps=0u w=4e+06u l=150000u
X213 a_n22643_8431# a_n23348_12347.t5 a_n22928_8431# VDD.t202 sky130_fd_pr__pfet_01v8 ad=1.16e+12p pd=8.58e+06u as=0p ps=0u w=4e+06u l=150000u
X214 a_n2409_2484# modi3.t3 GND.t146 GND.t145 sky130_fd_pr__nfet_01v8 ad=0p pd=0u as=0p ps=0u w=6e+06u l=150000u
X215 a_n9674_5995# a_n11858_2898.t5 a_n10117_5898# VDD.t183 sky130_fd_pr__pfet_01v8 ad=0p pd=0u as=1.16e+12p ps=8.58e+06u w=4e+06u l=150000u
X216 GND a_n8507_11550.t4 a_n9889_12279.t1 GND sky130_fd_pr__nfet_01v8 ad=0p pd=0u as=0p ps=0u w=2e+06u l=150000u
X217 a_n11858_2898.t1 fout4.t9 GND.t143 GND.t142 sky130_fd_pr__nfet_01v8 ad=0p pd=0u as=0p ps=0u w=2e+06u l=150000u
X218 a_n5478_12358# fout3.t14 GND GND sky130_fd_pr__nfet_01v8 ad=0p pd=0u as=0p ps=0u w=2e+06u l=150000u
X219 a_n23595_11454# fin.t5 a_n22247_8431# VDD.t117 sky130_fd_pr__pfet_01v8 ad=1.16e+12p pd=8.58e+06u as=0p ps=0u w=4e+06u l=150000u
X220 VDD.t231 a_n23595_11454# fout0.t2 VDD.t230 sky130_fd_pr__pfet_01v8 ad=0p pd=0u as=0p ps=0u w=4e+06u l=150000u
X221 VDD.t159 modi2.t5 a_n8507_11550.t2 VDD.t158 sky130_fd_pr__pfet_01v8 ad=0p pd=0u as=0p ps=0u w=4e+06u l=150000u
X222 GND.t21 a_n21734_5903# a_n21989_2481# GND.t20 sky130_fd_pr__nfet_01v8 ad=0p pd=0u as=0p ps=0u w=2e+06u l=150000u
X223 a_n8558_5866.t3 P5.t0 VDD.t221 VDD.t220 sky130_fd_pr__pfet_01v8 ad=0p pd=0u as=0p ps=0u w=4e+06u l=150000u
X224 a_n9159_8440# a_n9554_8440# VDD.t60 VDD.t59 sky130_fd_pr__pfet_01v8 ad=2.32e+12p pd=1.716e+07u as=0p ps=0u w=4e+06u l=150000u
X225 a_n8066_2483# fout4.t10 a_n8266_2483# GND.t144 sky130_fd_pr__nfet_01v8 ad=3.48e+12p pd=2.516e+07u as=0p ps=0u w=6e+06u l=150000u
X226 VDD.t168 a_n15981_5897# a_n16219_5994# VDD.t167 sky130_fd_pr__pfet_01v8 ad=0p pd=0u as=0p ps=0u w=4e+06u l=150000u
X227 a_n16993_2475# fout5.t12 a_n17419_5897# GND.t66 sky130_fd_pr__nfet_01v8 ad=1.16e+12p pd=9.16e+06u as=5.8e+11p ps=4.58e+06u w=2e+06u l=150000u
X228 VDD.t112 a_n4261_5899# a_n4498_5996# VDD.t111 sky130_fd_pr__pfet_01v8 ad=0p pd=0u as=0p ps=0u w=4e+06u l=150000u
X229 GND modo.t3 a_n24251_11543# GND sky130_fd_pr__nfet_01v8 ad=0p pd=0u as=0p ps=0u w=6e+06u l=150000u
X230 a_n16468_12355# a_n16857_8436# GND GND sky130_fd_pr__nfet_01v8 ad=0p pd=0u as=0p ps=0u w=2e+06u l=150000u
X231 VDD.t200 modi1.t5 a_n12888_11551.t3 VDD.t199 sky130_fd_pr__pfet_01v8 ad=0p pd=0u as=0p ps=0u w=4e+06u l=150000u
X232 a_n2702_5867.t2 P4.t1 VDD.t147 VDD.t146 sky130_fd_pr__pfet_01v8 ad=0p pd=0u as=0p ps=0u w=4e+06u l=150000u
X233 a_n11283_12359# fout2.t10 GND GND sky130_fd_pr__nfet_01v8 ad=0p pd=0u as=0p ps=0u w=2e+06u l=150000u
X234 GND fout2.t11 a_n8419_11550# GND sky130_fd_pr__nfet_01v8 ad=0p pd=0u as=0p ps=0u w=6e+06u l=150000u
X235 a_n12508_2484# fout5.t13 GND.t67 GND sky130_fd_pr__nfet_01v8 ad=0p pd=0u as=0p ps=0u w=6e+06u l=150000u
X236 a_n14130_2482# modi5.t4 GND.t3 GND.t2 sky130_fd_pr__nfet_01v8 ad=0p pd=0u as=0p ps=0u w=6e+06u l=150000u
X237 fout.t1 a_n20175_5871.t5 a_n20386_2489# GND.t79 sky130_fd_pr__nfet_01v8 ad=0p pd=0u as=0p ps=0u w=6e+06u l=150000u
X238 VDD.t153 a_n7023_6002.t3 a_n5255_5996# VDD.t152 sky130_fd_pr__pfet_01v8 ad=0p pd=0u as=0p ps=0u w=4e+06u l=150000u
X239 VDD.t227 fout4.t11 a_n3817_5996# VDD.t226 sky130_fd_pr__pfet_01v8 ad=0p pd=0u as=0p ps=0u w=4e+06u l=150000u