** divider  cdl

.subckt DIVIDER VDD fout0 GND p2 p7 p1 p6 p5 p4 p3 p0 fin modo

*FIRST CELL
*****************************************************************************************************************
*****************************************************************************************************************
*****************************************************************************************************************
** NAND_2
M0 fout0 2 vdd vdd sky130_fd_pr__pfet_01v8 L=0.15U W=4U nf=1 m=1
M1 fout0 1 vdd vdd sky130_fd_pr__pfet_01v8 L=0.15U W=4U nf=1 m=1

M2 fout0 2 net1 gnd sky130_fd_pr__nfet_01v8 L=0.15U W=6U nf=1 m=1
M3 net1 1 gnd gnd sky130_fd_pr__nfet_01v8 L=0.15U W=6U nf=1 m=1
*****************************************************************************************************************
*****************************************************************************************************************
*****************************************************************************************************************
** AND
M4 31 fout0 vdd vdd sky130_fd_pr__pfet_01v8 L=0.15U W=4U nf=1 m=1
M5 31 modi0 vdd vdd sky130_fd_pr__pfet_01v8 L=0.15U W=4U nf=1 m=1

M6 31 modi0 net2 gnd sky130_fd_pr__nfet_01v8 L=0.15U W=6U nf=1 m=1

M7 net2 fout0 gnd gnd sky130_fd_pr__nfet_01v8 L=0.15U W=6U nf=1 m=1

M8 3 31 vdd vdd sky130_fd_pr__pfet_01v8 L=0.15U W=4U nf=1 m=1
M9 3 31 gnd gnd sky130_fd_pr__nfet_01v8 L=0.15U W=2U nf=1 m=1
*****************************************************************************************************************
*****************************************************************************************************************
*****************************************************************************************************************
** INV
M10 finb fin vdd vdd sky130_fd_pr__pfet_01v8 L=0.15U W=4U nf=1 m=1
M11 finb fin gnd gnd sky130_fd_pr__nfet_01v8 L=0.15U W=2U nf=1 m=1
*****************************************************************************************************************
*****************************************************************************************************************
*****************************************************************************************************************
** NAND_3
*M D G S B
M12 2 fin vdd vdd sky130_fd_pr__pfet_01v8 L=0.15U W=4U nf=1 m=1
M13 2 p0 vdd vdd sky130_fd_pr__pfet_01v8 L=0.15U W=4U nf=1 m=1

M14 2 p0 net1_nand3 gnd sky130_fd_pr__nfet_01v8 L=0.15U W=6U nf=1 m=1

M15 net1_nand3 fin net2_nand3 gnd sky130_fd_pr__nfet_01v8 L=0.15U W=6U nf=1 m=1

M16 2 modo vdd vdd sky130_fd_pr__pfet_01v8 L=0.15U W=4U nf=1 m=1
M17 net2_nand3 modo gnd gnd sky130_fd_pr__nfet_01v8 L=0.15U W=6U nf=1 m=1

*****************************************************************************************************************
*****************************************************************************************************************
*****************************************************************************************************************
** FF 1 
M18 net1_ff1 fout0 VDD VDD sky130_fd_pr__pfet_01v8 L=0.15U W=4U nf=1 m=1
M19 net3_ff1 finb net1_ff1 VDD sky130_fd_pr__pfet_01v8 L=0.15U W=4U nf=1 m=1
M20 net3_ff1 fin net2_ff1 GND sky130_fd_pr__nfet_01v8 L=0.15U W=2U nf=1 m=1
M21 net2_ff1 fout0 GND GND sky130_fd_pr__nfet_01v8 L=0.15U W=2U nf=1 m=1

M22 net4_ff1 net3_ff1 VDD VDD sky130_fd_pr__pfet_01v8 L=0.15U W=4U nf=1 m=1
M23 1 fin net4_ff1 VDD sky130_fd_pr__pfet_01v8 L=0.15U W=4U nf=1 m=1
M24 1 finb net5_ff1 GND sky130_fd_pr__nfet_01v8 L=0.15U W=2U nf=1 m=1
M25 net5_ff1 net3_ff1 GND GND sky130_fd_pr__nfet_01v8 L=0.15U W=2U nf=1 m=1

*****************************************************************************************************************
*****************************************************************************************************************
*****************************************************************************************************************
** FF 2
M26 net1_ff2 3 VDD VDD sky130_fd_pr__pfet_01v8 L=0.15U W=4U nf=1 m=1
M27 net3_ff2 finb net1_ff2 VDD sky130_fd_pr__pfet_01v8 L=0.15U W=4U nf=1 m=1
M28 net3_ff2 fin net2_ff2 GND sky130_fd_pr__nfet_01v8 L=0.15U W=2U nf=1 m=1
M29 net2_ff2 3 GND GND sky130_fd_pr__nfet_01v8 L=0.15U W=2U nf=1 m=1

M30 net4_ff2 net3_ff2 VDD VDD sky130_fd_pr__pfet_01v8 L=0.15U W=4U nf=1 m=1
M31 modo fin net4_ff2 VDD sky130_fd_pr__pfet_01v8 L=0.15U W=4U nf=1 m=1
M32 modo finb net5_ff2 GND sky130_fd_pr__nfet_01v8 L=0.15U W=2U nf=1 m=1
M33 net5_ff2 net3_ff2 GND GND sky130_fd_pr__nfet_01v8 L=0.15U W=2U nf=1 m=1



*********************************///////////////SECOND CELL\\\\\\\\\\\\\*****************************************
*****************************************************************************************************************
*****************************************************************************************************************
*****************************************************************************************************************

*****************************************************************************************************************
*****************************************************************************************************************
*****************************************************************************************************************
** NAND_2
M100 fout1 201 vdd vdd sky130_fd_pr__pfet_01v8 L=0.15U W=4U nf=1 m=1
M101 fout1 101 vdd vdd sky130_fd_pr__pfet_01v8 L=0.15U W=4U nf=1 m=1

M102 fout1 201 net11 gnd sky130_fd_pr__nfet_01v8 L=0.15U W=6U nf=1 m=1
M103 net11 101 gnd gnd sky130_fd_pr__nfet_01v8 L=0.15U W=6U nf=1 m=1
*****************************************************************************************************************
*****************************************************************************************************************
*****************************************************************************************************************
** AND
M104 3101 fout1 vdd vdd sky130_fd_pr__pfet_01v8 L=0.15U W=4U nf=1 m=1
M105 3101 modi1 vdd vdd sky130_fd_pr__pfet_01v8 L=0.15U W=4U nf=1 m=1

M106 3101 modi1 net201 gnd sky130_fd_pr__nfet_01v8 L=0.15U W=6U nf=1 m=1

M107 net201 fout1 gnd gnd sky130_fd_pr__nfet_01v8 L=0.15U W=6U nf=1 m=1

M108 301 3101 vdd vdd sky130_fd_pr__pfet_01v8 L=0.15U W=4U nf=1 m=1
M109 301 3101 gnd gnd sky130_fd_pr__nfet_01v8 L=0.15U W=2U nf=1 m=1
*****************************************************************************************************************
*****************************************************************************************************************
*****************************************************************************************************************
** INV
M110 finb01 fout0 vdd vdd sky130_fd_pr__pfet_01v8 L=0.15U W=4U nf=1 m=1
M111 finb01 fout0 gnd gnd sky130_fd_pr__nfet_01v8 L=0.15U W=2U nf=1 m=1
*****************************************************************************************************************
*****************************************************************************************************************
*****************************************************************************************************************
** NAND_3
*M D G S B
M112 201 fout0 vdd vdd sky130_fd_pr__pfet_01v8 L=0.15U W=4U nf=1 m=1
M113 201 p1 vdd vdd sky130_fd_pr__pfet_01v8 L=0.15U W=4U nf=1 m=1

M114 201 p1 net1_nand301 gnd sky130_fd_pr__nfet_01v8 L=0.15U W=6U nf=1 m=1

M115 net1_nand301 fout0 net2_nand301 gnd sky130_fd_pr__nfet_01v8 L=0.15U W=6U nf=1 m=1

M116 201 modi0 vdd vdd sky130_fd_pr__pfet_01v8 L=0.15U W=4U nf=1 m=1
M117 net2_nand301 modi0 gnd gnd sky130_fd_pr__nfet_01v8 L=0.15U W=6U nf=1 m=1

*****************************************************************************************************************
*****************************************************************************************************************
*****************************************************************************************************************
** FF 1 
M118 net1_ff101 fout1 VDD VDD sky130_fd_pr__pfet_01v8 L=0.15U W=4U nf=1 m=1
M119 net3_ff101 finb01 net1_ff101 VDD sky130_fd_pr__pfet_01v8 L=0.15U W=4U nf=1 m=1
M120 net3_ff101 fout0 net2_ff101 GND sky130_fd_pr__nfet_01v8 L=0.15U W=2U nf=1 m=1
M121 net2_ff101 fout1 GND GND sky130_fd_pr__nfet_01v8 L=0.15U W=2U nf=1 m=1

M122 net4_ff101 net3_ff101 VDD VDD sky130_fd_pr__pfet_01v8 L=0.15U W=4U nf=1 m=1	
M123 101 fout0 net4_ff101 VDD sky130_fd_pr__pfet_01v8 L=0.15U W=4U nf=1 m=1
M124 101 finb01 net5_ff101 GND sky130_fd_pr__nfet_01v8 L=0.15U W=2U nf=1 m=1
M125 net5_ff101 net3_ff101 GND GND sky130_fd_pr__nfet_01v8 L=0.15U W=2U nf=1 m=1

*****************************************************************************************************************
*****************************************************************************************************************
*****************************************************************************************************************
** FF 2
M126 net1_ff201 301 VDD VDD sky130_fd_pr__pfet_01v8 L=0.15U W=4U nf=1 m=1
M127 net3_ff201 finb01 net1_ff201 VDD sky130_fd_pr__pfet_01v8 L=0.15U W=4U nf=1 m=1
M128 net3_ff201 fout0 net2_ff201 GND sky130_fd_pr__nfet_01v8 L=0.15U W=2U nf=1 m=1
M129 net2_ff201 301 GND GND sky130_fd_pr__nfet_01v8 L=0.15U W=2U nf=1 m=1

M130 net4_ff201 net3_ff201 VDD VDD sky130_fd_pr__pfet_01v8 L=0.15U W=4U nf=1 m=1
M131 modi0 fout0 net4_ff201 VDD sky130_fd_pr__pfet_01v8 L=0.15U W=4U nf=1 m=1
M132 modi0 finb01 net5_ff201 GND sky130_fd_pr__nfet_01v8 L=0.15U W=2U nf=1 m=1
M133 net5_ff201 net3_ff201 GND GND sky130_fd_pr__nfet_01v8 L=0.15U W=2U nf=1 m=1



*********************************///////////////THIRD CELL\\\\\\\\\\\\\*****************************************
*****************************************************************************************************************
*****************************************************************************************************************
*****************************************************************************************************************

*****************************************************************************************************************
*****************************************************************************************************************
*****************************************************************************************************************
** NAND_2
M200 fout2 202 vdd vdd sky130_fd_pr__pfet_01v8 L=0.15U W=4U nf=1 m=1
M201 fout2 102 vdd vdd sky130_fd_pr__pfet_01v8 L=0.15U W=4U nf=1 m=1

M202 fout2 202 net21 gnd sky130_fd_pr__nfet_01v8 L=0.15U W=6U nf=1 m=1
M203 net21 102 gnd gnd sky130_fd_pr__nfet_01v8 L=0.15U W=6U nf=1 m=1
*****************************************************************************************************************
*****************************************************************************************************************
*****************************************************************************************************************
** AND
M204 3102 fout2 vdd vdd sky130_fd_pr__pfet_01v8 L=0.15U W=4U nf=1 m=1
M205 3102 modi2 vdd vdd sky130_fd_pr__pfet_01v8 L=0.15U W=4U nf=1 m=1

M206 3102 modi2 net202 gnd sky130_fd_pr__nfet_01v8 L=0.15U W=6U nf=1 m=1

M207 net202 fout2 gnd gnd sky130_fd_pr__nfet_01v8 L=0.15U W=6U nf=1 m=1

M208 302 3102 vdd vdd sky130_fd_pr__pfet_01v8 L=0.15U W=4U nf=1 m=1
M209 302 3102 gnd gnd sky130_fd_pr__nfet_01v8 L=0.15U W=2U nf=1 m=1
*****************************************************************************************************************
*****************************************************************************************************************
*****************************************************************************************************************
** INV
M210 finb02 fout1 vdd vdd sky130_fd_pr__pfet_01v8 L=0.15U W=4U nf=1 m=1
M211 finb02 fout1 gnd gnd sky130_fd_pr__nfet_01v8 L=0.15U W=2U nf=1 m=1
*****************************************************************************************************************
*****************************************************************************************************************
*****************************************************************************************************************
** NAND_3
*M D G S B
M212 202 fout1 vdd vdd sky130_fd_pr__pfet_01v8 L=0.15U W=4U nf=1 m=1
M213 202 p2 vdd vdd sky130_fd_pr__pfet_01v8 L=0.15U W=4U nf=1 m=1

M214 202 p2 net1_nand302 gnd sky130_fd_pr__nfet_01v8 L=0.15U W=6U nf=1 m=1

M215 net1_nand302 fout1 net2_nand302 gnd sky130_fd_pr__nfet_01v8 L=0.15U W=6U nf=1 m=1

M216 202 modi1 vdd vdd sky130_fd_pr__pfet_01v8 L=0.15U W=4U nf=1 m=1
M217 net2_nand302 modi1 gnd gnd sky130_fd_pr__nfet_01v8 L=0.15U W=6U nf=1 m=1

*****************************************************************************************************************
*****************************************************************************************************************
*****************************************************************************************************************
** FF 1 
M218 net1_ff102 fout2 VDD VDD sky130_fd_pr__pfet_01v8 L=0.15U W=4U nf=1 m=1
M219 net3_ff102 finb02 net1_ff102 VDD sky130_fd_pr__pfet_01v8 L=0.15U W=4U nf=1 m=1
M220 net3_ff102 fout1 net2_ff102 GND sky130_fd_pr__nfet_01v8 L=0.15U W=2U nf=1 m=1
M221 net2_ff102 fout2 GND GND sky130_fd_pr__nfet_01v8 L=0.15U W=2U nf=1 m=1

M222 net4_ff102 net3_ff102 VDD VDD sky130_fd_pr__pfet_01v8 L=0.15U W=4U nf=1 m=1
M223 102 fout1 net4_ff102 VDD sky130_fd_pr__pfet_01v8 L=0.15U W=4U nf=1 m=1
M224 102 finb02 net5_ff102 GND sky130_fd_pr__nfet_01v8 L=0.15U W=2U nf=1 m=1
M225 net5_ff102 net3_ff102 GND GND sky130_fd_pr__nfet_01v8 L=0.15U W=2U nf=1 m=1

*****************************************************************************************************************
*****************************************************************************************************************
*****************************************************************************************************************
** FF 2
M226 net1_ff202 302 VDD VDD sky130_fd_pr__pfet_01v8 L=0.15U W=4U nf=1 m=1
M227 net3_ff202 finb02 net1_ff202 VDD sky130_fd_pr__pfet_01v8 L=0.15U W=4U nf=1 m=1
M228 net3_ff202 fout1 net2_ff202 GND sky130_fd_pr__nfet_01v8 L=0.15U W=2U nf=1 m=1
M229 net2_ff202 302 GND GND sky130_fd_pr__nfet_01v8 L=0.15U W=2U nf=1 m=1

M230 net4_ff202 net3_ff202 VDD VDD sky130_fd_pr__pfet_01v8 L=0.15U W=4U nf=1 m=1
M231 modi1 fout1 net4_ff202 VDD sky130_fd_pr__pfet_01v8 L=0.15U W=4U nf=1 m=1
M232 modi1 finb02 net5_ff202 GND sky130_fd_pr__nfet_01v8 L=0.15U W=2U nf=1 m=1
M233 net5_ff202 net3_ff202 GND GND sky130_fd_pr__nfet_01v8 L=0.15U W=2U nf=1 m=1



*********************************///////////////FOURTH CELL\\\\\\\\\\\\\*****************************************
*****************************************************************************************************************
*****************************************************************************************************************
*****************************************************************************************************************


** NAND_2
M300 fout3 203 vdd vdd sky130_fd_pr__pfet_01v8 L=0.15U W=4U nf=1 m=1
M301 fout3 103 vdd vdd sky130_fd_pr__pfet_01v8 L=0.15U W=4U nf=1 m=1

M302 fout3 203 net31 gnd sky130_fd_pr__nfet_01v8 L=0.15U W=6U nf=1 m=1
M303 net31 103 gnd gnd sky130_fd_pr__nfet_01v8 L=0.15U W=6U nf=1 m=1
*****************************************************************************************************************
*****************************************************************************************************************
*****************************************************************************************************************
** AND
M304 3103 fout3 vdd vdd sky130_fd_pr__pfet_01v8 L=0.15U W=4U nf=1 m=1
M305 3103 modi3 vdd vdd sky130_fd_pr__pfet_01v8 L=0.15U W=4U nf=1 m=1

M306 3103 modi3 net203 gnd sky130_fd_pr__nfet_01v8 L=0.15U W=6U nf=1 m=1

M307 net203 fout3 gnd gnd sky130_fd_pr__nfet_01v8 L=0.15U W=6U nf=1 m=1

M308 303 3103 vdd vdd sky130_fd_pr__pfet_01v8 L=0.15U W=4U nf=1 m=1
M309 303 3103 gnd gnd sky130_fd_pr__nfet_01v8 L=0.15U W=2U nf=1 m=1
*****************************************************************************************************************
*****************************************************************************************************************
*****************************************************************************************************************
** INV
M310 finb03 fout2 vdd vdd sky130_fd_pr__pfet_01v8 L=0.15U W=4U nf=1 m=1
M311 finb03 fout2 gnd gnd sky130_fd_pr__nfet_01v8 L=0.15U W=2U nf=1 m=1
*****************************************************************************************************************
*****************************************************************************************************************
*****************************************************************************************************************
** NAND_3
*M D G S B
M312 203 fout2 vdd vdd sky130_fd_pr__pfet_01v8 L=0.15U W=4U nf=1 m=1
M313 203 p3 vdd vdd sky130_fd_pr__pfet_01v8 L=0.15U W=4U nf=1 m=1

M314 203 p3 net1_nand303 gnd sky130_fd_pr__nfet_01v8 L=0.15U W=6U nf=1 m=1

M315 net1_nand303 fout2 net2_nand303 gnd sky130_fd_pr__nfet_01v8 L=0.15U W=6U nf=1 m=1

M316 203 modi2 vdd vdd sky130_fd_pr__pfet_01v8 L=0.15U W=4U nf=1 m=1
M317 net2_nand303 modi2 gnd gnd sky130_fd_pr__nfet_01v8 L=0.15U W=6U nf=1 m=1

*****************************************************************************************************************
*****************************************************************************************************************
*****************************************************************************************************************
** FF 1 
M318 net1_ff103 fout3 VDD VDD sky130_fd_pr__pfet_01v8 L=0.15U W=4U nf=1 m=1
M319 net3_ff103 finb03 net1_ff103 VDD sky130_fd_pr__pfet_01v8 L=0.15U W=4U nf=1 m=1
M320 net3_ff103 fout2 net2_ff103 GND sky130_fd_pr__nfet_01v8 L=0.15U W=2U nf=1 m=1
M321 net2_ff103 fout3 GND GND sky130_fd_pr__nfet_01v8 L=0.15U W=2U nf=1 m=1

M322 net4_ff103 net3_ff103 VDD VDD sky130_fd_pr__pfet_01v8 L=0.15U W=4U nf=1 m=1
M323 103 fout2 net4_ff103 VDD sky130_fd_pr__pfet_01v8 L=0.15U W=4U nf=1 m=1
M324 103 finb03 net5_ff103 GND sky130_fd_pr__nfet_01v8 L=0.15U W=2U nf=1 m=1
M325 net5_ff103 net3_ff103 GND GND sky130_fd_pr__nfet_01v8 L=0.15U W=2U nf=1 m=1

*****************************************************************************************************************
*****************************************************************************************************************
*****************************************************************************************************************
** FF 2
M326 net1_ff203 303 VDD VDD sky130_fd_pr__pfet_01v8 L=0.15U W=4U nf=1 m=1
M327 net3_ff203 finb03 net1_ff203 VDD sky130_fd_pr__pfet_01v8 L=0.15U W=4U nf=1 m=1
M328 net3_ff203 fout2 net2_ff203 GND sky130_fd_pr__nfet_01v8 L=0.15U W=2U nf=1 m=1
M329 net2_ff203 303 GND GND sky130_fd_pr__nfet_01v8 L=0.15U W=2U nf=1 m=1

M330 net4_ff203 net3_ff203 VDD VDD sky130_fd_pr__pfet_01v8 L=0.15U W=4U nf=1 m=1
M331 modi2 fout2 net4_ff203 VDD sky130_fd_pr__pfet_01v8 L=0.15U W=4U nf=1 m=1
M332 modi2 finb03 net5_ff203 GND sky130_fd_pr__nfet_01v8 L=0.15U W=2U nf=1 m=1
M333 net5_ff203 net3_ff203 GND GND sky130_fd_pr__nfet_01v8 L=0.15U W=2U nf=1 m=1


*********************************///////////////FIFTH CELL\\\\\\\\\\\\\*****************************************
*****************************************************************************************************************
*****************************************************************************************************************
*****************************************************************************************************************
** NAND_2
M400 fout4 204 vdd vdd sky130_fd_pr__pfet_01v8 L=0.15U W=4U nf=1 m=1
M401 fout4 104 vdd vdd sky130_fd_pr__pfet_01v8 L=0.15U W=4U nf=1 m=1

M402 fout4 204 net41 gnd sky130_fd_pr__nfet_01v8 L=0.15U W=6U nf=1 m=1
M403 net41 104 gnd gnd sky130_fd_pr__nfet_01v8 L=0.15U W=6U nf=1 m=1
*****************************************************************************************************************
*****************************************************************************************************************
*****************************************************************************************************************
** AND
M404 3104 fout4 vdd vdd sky130_fd_pr__pfet_01v8 L=0.15U W=4U nf=1 m=1
M405 3104 modi4 vdd vdd sky130_fd_pr__pfet_01v8 L=0.15U W=4U nf=1 m=1

M406 3104 modi4 net204 gnd sky130_fd_pr__nfet_01v8 L=0.15U W=6U nf=1 m=1

M407 net204 fout4 gnd gnd sky130_fd_pr__nfet_01v8 L=0.15U W=6U nf=1 m=1

M408 304 3104 vdd vdd sky130_fd_pr__pfet_01v8 L=0.15U W=4U nf=1 m=1
M409 304 3104 gnd gnd sky130_fd_pr__nfet_01v8 L=0.15U W=2U nf=1 m=1
*****************************************************************************************************************
*****************************************************************************************************************
*****************************************************************************************************************
** INV
M410 finb04 fout3 vdd vdd sky130_fd_pr__pfet_01v8 L=0.15U W=4U nf=1 m=1
M411 finb04 fout3 gnd gnd sky130_fd_pr__nfet_01v8 L=0.15U W=2U nf=1 m=1
*****************************************************************************************************************
*****************************************************************************************************************
*****************************************************************************************************************
** NAND_3
*M D G S B
M412 204 fout3 vdd vdd sky130_fd_pr__pfet_01v8 L=0.15U W=4U nf=1 m=1
M413 204 p4 vdd vdd sky130_fd_pr__pfet_01v8 L=0.15U W=4U nf=1 m=1

M414 204 p4 net1_nand304 gnd sky130_fd_pr__nfet_01v8 L=0.15U W=6U nf=1 m=1

M415 net1_nand304 fout3 net2_nand304 gnd sky130_fd_pr__nfet_01v8 L=0.15U W=6U nf=1 m=1

M416 204 modi3 vdd vdd sky130_fd_pr__pfet_01v8 L=0.15U W=4U nf=1 m=1
M417 net2_nand304 modi3 gnd gnd sky130_fd_pr__nfet_01v8 L=0.15U W=6U nf=1 m=1

*****************************************************************************************************************
*****************************************************************************************************************
*****************************************************************************************************************
** FF 1 
M418 net1_ff104 fout4 VDD VDD sky130_fd_pr__pfet_01v8 L=0.15U W=4U nf=1 m=1
M419 net3_ff104 finb04 net1_ff104 VDD sky130_fd_pr__pfet_01v8 L=0.15U W=4U nf=1 m=1
M420 net3_ff104 fout3 net2_ff104 GND sky130_fd_pr__nfet_01v8 L=0.15U W=2U nf=1 m=1
M421 net2_ff104 fout4 GND GND sky130_fd_pr__nfet_01v8 L=0.15U W=2U nf=1 m=1

M422 net4_ff104 net3_ff104 VDD VDD sky130_fd_pr__pfet_01v8 L=0.15U W=4U nf=1 m=1
M423 104 fout3 net4_ff104 VDD sky130_fd_pr__pfet_01v8 L=0.15U W=4U nf=1 m=1
M424 104 finb04 net5_ff104 GND sky130_fd_pr__nfet_01v8 L=0.15U W=2U nf=1 m=1
M425 net5_ff104 net3_ff104 GND GND sky130_fd_pr__nfet_01v8 L=0.15U W=2U nf=1 m=1

*****************************************************************************************************************
*****************************************************************************************************************
*****************************************************************************************************************
** FF 2
M426 net1_ff204 304 VDD VDD sky130_fd_pr__pfet_01v8 L=0.15U W=4U nf=1 m=1
M427 net3_ff204 finb04 net1_ff204 VDD sky130_fd_pr__pfet_01v8 L=0.15U W=4U nf=1 m=1
M428 net3_ff204 fout3 net2_ff204 GND sky130_fd_pr__nfet_01v8 L=0.15U W=2U nf=1 m=1
M429 net2_ff204 304 GND GND sky130_fd_pr__nfet_01v8 L=0.15U W=2U nf=1 m=1

M430 net4_ff204 net3_ff204 VDD VDD sky130_fd_pr__pfet_01v8 L=0.15U W=4U nf=1 m=1
M431 modi3 fout3 net4_ff204 VDD sky130_fd_pr__pfet_01v8 L=0.15U W=4U nf=1 m=1
M432 modi3 finb04 net5_ff204 GND sky130_fd_pr__nfet_01v8 L=0.15U W=2U nf=1 m=1
M433 net5_ff204 net3_ff204 GND GND sky130_fd_pr__nfet_01v8 L=0.15U W=2U nf=1 m=1

*********************************///////////////SIXTHS CELL\\\\\\\\\\\\\*****************************************
*****************************************************************************************************************
*****************************************************************************************************************
*****************************************************************************************************************
** NAND_2
M500 fout5 205 vdd vdd sky130_fd_pr__pfet_01v8 L=0.15U W=4U nf=1 m=1
M501 fout5 105 vdd vdd sky130_fd_pr__pfet_01v8 L=0.15U W=4U nf=1 m=1

M502 fout5 205 net51 gnd sky130_fd_pr__nfet_01v8 L=0.15U W=6U nf=1 m=1
M503 net51 105 gnd gnd sky130_fd_pr__nfet_01v8 L=0.15U W=6U nf=1 m=1
*****************************************************************************************************************
*****************************************************************************************************************
*****************************************************************************************************************
** AND
M504 3105 fout5 vdd vdd sky130_fd_pr__pfet_01v8 L=0.15U W=4U nf=1 m=1
M505 3105 modi5 vdd vdd sky130_fd_pr__pfet_01v8 L=0.15U W=4U nf=1 m=1

M506 3105 modi5 net205 gnd sky130_fd_pr__nfet_01v8 L=0.15U W=6U nf=1 m=1

M507 net205 fout5 gnd gnd sky130_fd_pr__nfet_01v8 L=0.15U W=6U nf=1 m=1

M508 305 3105 vdd vdd sky130_fd_pr__pfet_01v8 L=0.15U W=4U nf=1 m=1
M509 305 3105 gnd gnd sky130_fd_pr__nfet_01v8 L=0.15U W=2U nf=1 m=1
*****************************************************************************************************************
*****************************************************************************************************************
*****************************************************************************************************************
** INV
M510 finb05 fout4 vdd vdd sky130_fd_pr__pfet_01v8 L=0.15U W=4U nf=1 m=1
M511 finb05 fout4 gnd gnd sky130_fd_pr__nfet_01v8 L=0.15U W=2U nf=1 m=1
*****************************************************************************************************************
*****************************************************************************************************************
*****************************************************************************************************************
** NAND_3
*M D G S B
M512 205 fout4 vdd vdd sky130_fd_pr__pfet_01v8 L=0.15U W=4U nf=1 m=1
M513 205 p5 vdd vdd sky130_fd_pr__pfet_01v8 L=0.15U W=4U nf=1 m=1

M514 205 p5 net1_nand305 gnd sky130_fd_pr__nfet_01v8 L=0.15U W=6U nf=1 m=1

M515 net1_nand305 fout4 net2_nand305 gnd sky130_fd_pr__nfet_01v8 L=0.15U W=6U nf=1 m=1

M516 205 modi4 vdd vdd sky130_fd_pr__pfet_01v8 L=0.15U W=4U nf=1 m=1
M517 net2_nand305 modi4 gnd gnd sky130_fd_pr__nfet_01v8 L=0.15U W=6U nf=1 m=1

*****************************************************************************************************************
*****************************************************************************************************************
*****************************************************************************************************************
** FF 1 
M518 net1_ff105 fout5 VDD VDD sky130_fd_pr__pfet_01v8 L=0.15U W=4U nf=1 m=1
M519 net3_ff105 finb05 net1_ff105 VDD sky130_fd_pr__pfet_01v8 L=0.15U W=4U nf=1 m=1
M520 net3_ff105 fout4 net2_ff105 GND sky130_fd_pr__nfet_01v8 L=0.15U W=2U nf=1 m=1
M521 net2_ff105 fout5 GND GND sky130_fd_pr__nfet_01v8 L=0.15U W=2U nf=1 m=1

M522 net4_ff105 net3_ff105 VDD VDD sky130_fd_pr__pfet_01v8 L=0.15U W=4U nf=1 m=1
M523 105 fout4 net4_ff105 VDD sky130_fd_pr__pfet_01v8 L=0.15U W=4U nf=1 m=1
M524 105 finb05 net5_ff105 GND sky130_fd_pr__nfet_01v8 L=0.15U W=2U nf=1 m=1
M525 net5_ff105 net3_ff105 GND GND sky130_fd_pr__nfet_01v8 L=0.15U W=2U nf=1 m=1

*****************************************************************************************************************
*****************************************************************************************************************
*****************************************************************************************************************
** FF 2
M526 net1_ff205 305 VDD VDD sky130_fd_pr__pfet_01v8 L=0.15U W=4U nf=1 m=1
M527 net3_ff205 finb05 net1_ff205 VDD sky130_fd_pr__pfet_01v8 L=0.15U W=4U nf=1 m=1
M528 net3_ff205 fout4 net2_ff205 GND sky130_fd_pr__nfet_01v8 L=0.15U W=2U nf=1 m=1
M529 net2_ff205 305 GND GND sky130_fd_pr__nfet_01v8 L=0.15U W=2U nf=1 m=1

M530 net4_ff205 net3_ff205 VDD VDD sky130_fd_pr__pfet_01v8 L=0.15U W=4U nf=1 m=1
M531 modi4 fout4 net4_ff205 VDD sky130_fd_pr__pfet_01v8 L=0.15U W=4U nf=1 m=1
M532 modi4 finb05 net5_ff205 GND sky130_fd_pr__nfet_01v8 L=0.15U W=2U nf=1 m=1
M533 net5_ff205 net3_ff205 GND GND sky130_fd_pr__nfet_01v8 L=0.15U W=2U nf=1 m=1

*********************************///////////////SEVENTH CELL\\\\\\\\\\\\\*****************************************
*****************************************************************************************************************
*****************************************************************************************************************
*****************************************************************************************************************
*****************************************************************************************************************
*****************************************************************************************************************