* NGSPICE file created from DIVIDER.ext - technology: sky130A

.subckt DIVIDER P0 P1 P2 P7 P6 P5 P4 P3 fin modo modi fout0 modi0 fout1 modi1 modi2
+ fout2 modi3 fout3 fout4 modi4 fout5 modi5 fout6 modi6 fout VDD GND
X0 a_n3749_8439# fout2 a_n4036_12366# GND sky130_fd_pr__nfet_01v8 ad=5.8e+11p pd=4.58e+06u as=1.16e+12p ps=9.16e+06u w=2e+06u l=150000u
X1 a_n13930_2482# fout5 a_n14130_2482# GND sky130_fd_pr__nfet_01v8 ad=3.48e+12p pd=2.516e+07u as=3.48e+12p ps=2.516e+07u w=6e+06u l=150000u
X2 fout6 a_n14423_5865# a_n14633_2483# GND sky130_fd_pr__nfet_01v8 ad=1.74e+12p pd=1.258e+07u as=3.48e+12p ps=2.516e+07u w=6e+06u l=150000u
X3 VDD fin a_n24539_11543# VDD sky130_fd_pr__pfet_01v8 ad=1.2064e+14p pd=8.9232e+08u as=3.48e+12p ps=2.574e+07u w=4e+06u l=150000u
X4 GND fout6 a_n15556_2475# GND sky130_fd_pr__nfet_01v8 ad=6.96e+13p pd=5.2176e+08u as=1.16e+12p ps=9.16e+06u w=2e+06u l=150000u
X5 a_n15024_8436# a_n15419_8436# VDD VDD sky130_fd_pr__pfet_01v8 ad=2.32e+12p pd=1.716e+07u as=0p ps=0u w=4e+06u l=150000u
X6 a_n18023_11547# a_n18753_11548# fout1 GND sky130_fd_pr__nfet_01v8 ad=3.48e+12p pd=2.516e+07u as=1.74e+12p ps=1.258e+07u w=6e+06u l=150000u
X7 a_n5255_5996# a_n6002_2899# a_n5699_5899# VDD sky130_fd_pr__pfet_01v8 ad=2.32e+12p pd=1.716e+07u as=1.16e+12p ps=8.58e+06u w=4e+06u l=150000u
X8 a_n11277_8440# fout2 VDD VDD sky130_fd_pr__pfet_01v8 ad=2.32e+12p pd=1.716e+07u as=0p ps=0u w=4e+06u l=150000u
X9 a_n11129_2476# fout4 a_n11555_5898# GND sky130_fd_pr__nfet_01v8 ad=1.16e+12p pd=9.16e+06u as=5.8e+11p ps=4.58e+06u w=2e+06u l=150000u
X10 GND a_n20158_11542# a_n21540_12270# GND sky130_fd_pr__nfet_01v8 ad=0p pd=0u as=5.8e+11p ps=4.58e+06u w=2e+06u l=150000u
X11 GND a_n14372_11547# a_n15755_12275# GND sky130_fd_pr__nfet_01v8 ad=0p pd=0u as=5.8e+11p ps=4.58e+06u w=2e+06u l=150000u
X12 a_n17810_11459# a_n17562_12353# a_n16468_12355# GND sky130_fd_pr__nfet_01v8 ad=5.8e+11p pd=4.58e+06u as=1.16e+12p ps=9.16e+06u w=2e+06u l=150000u
X13 a_n10992_8440# fout1 a_n11283_12359# GND sky130_fd_pr__nfet_01v8 ad=5.8e+11p pd=4.58e+06u as=1.16e+12p ps=9.16e+06u w=2e+06u l=150000u
X14 a_n10596_8440# a_n10992_8440# VDD VDD sky130_fd_pr__pfet_01v8 ad=2.32e+12p pd=1.716e+07u as=0p ps=0u w=4e+06u l=150000u
X15 a_n9889_12279# a_n8507_11550# VDD VDD sky130_fd_pr__pfet_01v8 ad=1.16e+12p pd=8.58e+06u as=0p ps=0u w=4e+06u l=150000u
X16 a_n20386_2489# a_n22077_2481# GND GND sky130_fd_pr__nfet_01v8 ad=3.48e+12p pd=2.516e+07u as=0p ps=0u w=6e+06u l=150000u
X17 a_n15419_8436# a_n17562_12353# a_n15705_8436# VDD sky130_fd_pr__pfet_01v8 ad=1.16e+12p pd=8.58e+06u as=2.32e+12p ps=1.716e+07u w=4e+06u l=150000u
X18 VDD a_n18722_2907# a_n18744_6000# VDD sky130_fd_pr__pfet_01v8 ad=0p pd=0u as=1.16e+12p ps=8.58e+06u w=4e+06u l=150000u
X19 VDD modi1 a_n14372_11547# VDD sky130_fd_pr__pfet_01v8 ad=0p pd=0u as=2.32e+12p ps=1.716e+07u w=4e+06u l=150000u
X20 a_n18744_6000# a_n18722_2907# GND GND sky130_fd_pr__nfet_01v8 ad=5.8e+11p pd=4.58e+06u as=0p ps=0u w=2e+06u l=150000u
X21 modi0 fout0 a_n15024_8436# VDD sky130_fd_pr__pfet_01v8 ad=1.16e+12p pd=8.58e+06u as=0p ps=0u w=4e+06u l=150000u
X22 a_n7001_2908# modi4 a_n6652_2485# GND sky130_fd_pr__nfet_01v8 ad=1.74e+12p pd=1.258e+07u as=3.48e+12p ps=2.516e+07u w=6e+06u l=150000u
X23 VDD a_n5699_5899# a_n5936_5996# VDD sky130_fd_pr__pfet_01v8 ad=0p pd=0u as=2.32e+12p ps=1.716e+07u w=4e+06u l=150000u
X24 GND modi1 a_n12600_11551# GND sky130_fd_pr__nfet_01v8 ad=0p pd=0u as=3.48e+12p ps=2.516e+07u w=6e+06u l=150000u
X25 a_n14423_5865# fout5 VDD VDD sky130_fd_pr__pfet_01v8 ad=3.48e+12p pd=2.574e+07u as=0p ps=0u w=4e+06u l=150000u
X26 GND a_n2702_11550# a_n4084_12278# GND sky130_fd_pr__nfet_01v8 ad=0p pd=0u as=5.8e+11p ps=4.58e+06u w=2e+06u l=150000u
X27 a_n21491_8431# a_n21540_12270# VDD VDD sky130_fd_pr__pfet_01v8 ad=2.32e+12p pd=1.716e+07u as=0p ps=0u w=4e+06u l=150000u
X28 a_n15419_8436# fout0 a_n15707_12363# GND sky130_fd_pr__nfet_01v8 ad=5.8e+11p pd=4.58e+06u as=1.16e+12p ps=9.16e+06u w=2e+06u l=150000u
X29 GND fout1 a_n14284_11547# GND sky130_fd_pr__nfet_01v8 ad=0p pd=0u as=3.48e+12p ps=2.516e+07u w=6e+06u l=150000u
X30 a_n22643_8431# fin a_n22934_12350# GND sky130_fd_pr__nfet_01v8 ad=5.8e+11p pd=4.58e+06u as=1.16e+12p ps=9.16e+06u w=2e+06u l=150000u
X31 a_n9554_8440# a_n11697_12356# a_n9840_8440# VDD sky130_fd_pr__pfet_01v8 ad=1.16e+12p pd=8.58e+06u as=2.32e+12p ps=1.716e+07u w=4e+06u l=150000u
X32 VDD a_n23172_5903# a_n23409_6000# VDD sky130_fd_pr__pfet_01v8 ad=0p pd=0u as=2.32e+12p ps=1.716e+07u w=4e+06u l=150000u
X33 a_n2913_2485# a_n4604_2477# GND GND sky130_fd_pr__nfet_01v8 ad=3.48e+12p pd=2.516e+07u as=0p ps=0u w=6e+06u l=150000u
X34 GND modi2 a_n6795_11551# GND sky130_fd_pr__nfet_01v8 ad=0p pd=0u as=3.48e+12p ps=2.516e+07u w=6e+06u l=150000u
X35 a_n23348_12347# fin VDD VDD sky130_fd_pr__pfet_01v8 ad=1.16e+12p pd=8.58e+06u as=0p ps=0u w=4e+06u l=150000u
X36 a_n12857_2907# modi5 VDD VDD sky130_fd_pr__pfet_01v8 ad=2.32e+12p pd=1.716e+07u as=0p ps=0u w=4e+06u l=150000u
X37 a_n4516_2477# a_n6002_2899# a_n4604_2477# GND sky130_fd_pr__nfet_01v8 ad=1.16e+12p pd=9.16e+06u as=5.8e+11p ps=4.58e+06u w=2e+06u l=150000u
X38 a_n24497_6006# a_n24474_2912# GND GND sky130_fd_pr__nfet_01v8 ad=5.8e+11p pd=4.58e+06u as=0p ps=0u w=2e+06u l=150000u
X39 GND a_n6140_11462# a_n6353_11550# GND sky130_fd_pr__nfet_01v8 ad=0p pd=0u as=3.48e+12p ps=2.516e+07u w=6e+06u l=150000u
X40 VDD a_n11944_11462# fout2 VDD sky130_fd_pr__pfet_01v8 ad=0p pd=0u as=2.32e+12p ps=1.716e+07u w=4e+06u l=150000u
X41 VDD a_n24497_6006# a_n22728_6000# VDD sky130_fd_pr__pfet_01v8 ad=0p pd=0u as=2.32e+12p ps=1.716e+07u w=4e+06u l=150000u
X42 GND a_n7023_6002# a_n5273_2477# GND sky130_fd_pr__nfet_01v8 ad=0p pd=0u as=1.16e+12p ps=9.16e+06u w=2e+06u l=150000u
X43 a_n21540_12270# a_n20158_11542# VDD VDD sky130_fd_pr__pfet_01v8 ad=1.16e+12p pd=8.58e+06u as=0p ps=0u w=4e+06u l=150000u
X44 a_n3835_2477# fout3 a_n4261_5899# GND sky130_fd_pr__nfet_01v8 ad=1.16e+12p pd=9.16e+06u as=5.8e+11p ps=4.58e+06u w=2e+06u l=150000u
X45 GND fout a_n21308_2481# GND sky130_fd_pr__nfet_01v8 ad=0p pd=0u as=1.16e+12p ps=9.16e+06u w=2e+06u l=150000u
X46 VDD fout0 a_n18753_11548# VDD sky130_fd_pr__pfet_01v8 ad=0p pd=0u as=3.48e+12p ps=2.574e+07u w=4e+06u l=150000u
X47 GND a_n5699_5899# a_n5954_2477# GND sky130_fd_pr__nfet_01v8 ad=0p pd=0u as=1.16e+12p ps=9.16e+06u w=2e+06u l=150000u
X48 a_n9841_12367# a_n9889_12279# GND GND sky130_fd_pr__nfet_01v8 ad=1.16e+12p pd=9.16e+06u as=0p ps=0u w=2e+06u l=150000u
X49 VDD a_n17419_5897# a_n17657_5994# VDD sky130_fd_pr__pfet_01v8 ad=0p pd=0u as=2.32e+12p ps=1.716e+07u w=4e+06u l=150000u
X50 VDD fout5 a_n9674_5995# VDD sky130_fd_pr__pfet_01v8 ad=0p pd=0u as=2.32e+12p ps=1.716e+07u w=4e+06u l=150000u
X51 a_n9554_8440# fout1 a_n9841_12367# GND sky130_fd_pr__nfet_01v8 ad=5.8e+11p pd=4.58e+06u as=0p ps=0u w=2e+06u l=150000u
X52 a_n8558_5866# modi4 VDD VDD sky130_fd_pr__pfet_01v8 ad=3.48e+12p pd=2.574e+07u as=0p ps=0u w=4e+06u l=150000u
X53 VDD fout6 a_n15538_5994# VDD sky130_fd_pr__pfet_01v8 ad=0p pd=0u as=2.32e+12p ps=1.716e+07u w=4e+06u l=150000u
X54 VDD a_n12888_11551# fout2 VDD sky130_fd_pr__pfet_01v8 ad=0p pd=0u as=0p ps=0u w=4e+06u l=150000u
X55 VDD modi2 a_n7083_11551# VDD sky130_fd_pr__pfet_01v8 ad=0p pd=0u as=3.48e+12p ps=2.574e+07u w=4e+06u l=150000u
X56 a_n12880_6001# a_n12857_2907# GND GND sky130_fd_pr__nfet_01v8 ad=5.8e+11p pd=4.58e+06u as=0p ps=0u w=2e+06u l=150000u
X57 a_n6353_11550# a_n7083_11551# fout3 GND sky130_fd_pr__nfet_01v8 ad=0p pd=0u as=1.74e+12p ps=1.258e+07u w=6e+06u l=150000u
X58 a_n20175_5871# P7 VDD VDD sky130_fd_pr__pfet_01v8 ad=3.48e+12p pd=2.574e+07u as=0p ps=0u w=4e+06u l=150000u
X59 a_n6002_2899# fout3 GND GND sky130_fd_pr__nfet_01v8 ad=5.8e+11p pd=4.58e+06u as=0p ps=0u w=2e+06u l=150000u
X60 fout5 a_n10460_2476# VDD VDD sky130_fd_pr__pfet_01v8 ad=2.32e+12p pd=1.716e+07u as=0p ps=0u w=4e+06u l=150000u
X61 a_n16237_2475# a_n17722_2897# a_n16325_2475# GND sky130_fd_pr__nfet_01v8 ad=1.16e+12p pd=9.16e+06u as=5.8e+11p ps=4.58e+06u w=2e+06u l=150000u
X62 a_n19682_2488# fout6 a_n19882_2488# GND sky130_fd_pr__nfet_01v8 ad=3.48e+12p pd=2.516e+07u as=3.48e+12p ps=2.516e+07u w=6e+06u l=150000u
X63 a_n20815_12350# a_n21205_8431# GND GND sky130_fd_pr__nfet_01v8 ad=1.16e+12p pd=9.16e+06u as=0p ps=0u w=2e+06u l=150000u
X64 a_n20175_5871# modi6 VDD VDD sky130_fd_pr__pfet_01v8 ad=0p pd=0u as=0p ps=0u w=4e+06u l=150000u
X65 fout5 a_n8558_5866# a_n8769_2484# GND sky130_fd_pr__nfet_01v8 ad=1.74e+12p pd=1.258e+07u as=3.48e+12p ps=2.516e+07u w=6e+06u l=150000u
X66 a_n15556_2475# fout5 a_n15981_5897# GND sky130_fd_pr__nfet_01v8 ad=0p pd=0u as=5.8e+11p ps=4.58e+06u w=2e+06u l=150000u
X67 a_n8419_11550# modi2 a_n8507_11550# GND sky130_fd_pr__nfet_01v8 ad=3.48e+12p pd=2.516e+07u as=1.74e+12p ps=1.258e+07u w=6e+06u l=150000u
X68 a_n18665_11548# P1 a_n18753_11548# GND sky130_fd_pr__nfet_01v8 ad=3.48e+12p pd=2.516e+07u as=1.74e+12p ps=1.258e+07u w=6e+06u l=150000u
X69 a_n17143_8436# fout1 VDD VDD sky130_fd_pr__pfet_01v8 ad=2.32e+12p pd=1.716e+07u as=0p ps=0u w=4e+06u l=150000u
X70 a_n2209_2484# fout3 a_n2409_2484# GND sky130_fd_pr__nfet_01v8 ad=3.48e+12p pd=2.516e+07u as=3.48e+12p ps=2.516e+07u w=6e+06u l=150000u
X71 GND fout1 a_n11697_12356# GND sky130_fd_pr__nfet_01v8 ad=0p pd=0u as=5.8e+11p ps=4.58e+06u w=2e+06u l=150000u
X72 VDD a_n24539_11543# fout0 VDD sky130_fd_pr__pfet_01v8 ad=0p pd=0u as=2.32e+12p ps=1.716e+07u w=4e+06u l=150000u
X73 a_n16462_8436# a_n16857_8436# VDD VDD sky130_fd_pr__pfet_01v8 ad=2.32e+12p pd=1.716e+07u as=0p ps=0u w=4e+06u l=150000u
X74 a_n18722_2907# modi6 VDD VDD sky130_fd_pr__pfet_01v8 ad=2.32e+12p pd=1.716e+07u as=0p ps=0u w=4e+06u l=150000u
X75 GND fout0 a_n20070_11542# GND sky130_fd_pr__nfet_01v8 ad=0p pd=0u as=3.48e+12p ps=2.516e+07u w=6e+06u l=150000u
X76 a_n17149_12355# fout1 GND GND sky130_fd_pr__nfet_01v8 ad=1.16e+12p pd=9.16e+06u as=0p ps=0u w=2e+06u l=150000u
X77 VDD a_n12857_2907# a_n12880_6001# VDD sky130_fd_pr__pfet_01v8 ad=0p pd=0u as=1.16e+12p ps=8.58e+06u w=4e+06u l=150000u
X78 GND fout3 a_n2614_11550# GND sky130_fd_pr__nfet_01v8 ad=0p pd=0u as=3.48e+12p ps=2.516e+07u w=6e+06u l=150000u
X79 VDD a_n7083_11551# fout3 VDD sky130_fd_pr__pfet_01v8 ad=0p pd=0u as=2.32e+12p ps=1.716e+07u w=4e+06u l=150000u
X80 GND fout2 a_n5892_12356# GND sky130_fd_pr__nfet_01v8 ad=0p pd=0u as=5.8e+11p ps=4.58e+06u w=2e+06u l=150000u
X81 fout6 a_n16325_2475# VDD VDD sky130_fd_pr__pfet_01v8 ad=2.32e+12p pd=1.716e+07u as=0p ps=0u w=4e+06u l=150000u
X82 a_n7001_2908# fout4 VDD VDD sky130_fd_pr__pfet_01v8 ad=2.32e+12p pd=1.716e+07u as=0p ps=0u w=4e+06u l=150000u
X83 a_n16857_8436# a_n17562_12353# a_n17143_8436# VDD sky130_fd_pr__pfet_01v8 ad=1.16e+12p pd=8.58e+06u as=0p ps=0u w=4e+06u l=150000u
X84 a_n17562_12353# fout0 VDD VDD sky130_fd_pr__pfet_01v8 ad=1.16e+12p pd=8.58e+06u as=0p ps=0u w=4e+06u l=150000u
X85 VDD fout2 a_n8507_11550# VDD sky130_fd_pr__pfet_01v8 ad=0p pd=0u as=2.32e+12p ps=1.716e+07u w=4e+06u l=150000u
X86 a_n11112_5995# a_n11858_2898# a_n11555_5898# VDD sky130_fd_pr__pfet_01v8 ad=2.32e+12p pd=1.716e+07u as=1.16e+12p ps=8.58e+06u w=4e+06u l=150000u
X87 a_n8266_2483# modi4 GND GND sky130_fd_pr__nfet_01v8 ad=3.48e+12p pd=2.516e+07u as=0p ps=0u w=6e+06u l=150000u
X88 VDD fout1 a_n12888_11551# VDD sky130_fd_pr__pfet_01v8 ad=0p pd=0u as=3.48e+12p ps=2.574e+07u w=4e+06u l=150000u
X89 fout a_n20175_5871# VDD VDD sky130_fd_pr__pfet_01v8 ad=2.32e+12p pd=1.716e+07u as=0p ps=0u w=4e+06u l=150000u
X90 a_n12857_2907# fout5 VDD VDD sky130_fd_pr__pfet_01v8 ad=0p pd=0u as=0p ps=0u w=4e+06u l=150000u
X91 a_n22253_12350# a_n22643_8431# GND GND sky130_fd_pr__nfet_01v8 ad=1.16e+12p pd=9.16e+06u as=0p ps=0u w=2e+06u l=150000u
X92 a_n4797_12358# a_n5187_8439# GND GND sky130_fd_pr__nfet_01v8 ad=1.16e+12p pd=9.16e+06u as=0p ps=0u w=2e+06u l=150000u
X93 a_n23475_2903# fout6 GND GND sky130_fd_pr__nfet_01v8 ad=5.8e+11p pd=4.58e+06u as=0p ps=0u w=2e+06u l=150000u
X94 a_n2702_5867# fout3 VDD VDD sky130_fd_pr__pfet_01v8 ad=3.48e+12p pd=2.574e+07u as=0p ps=0u w=4e+06u l=150000u
X95 a_n15707_12363# a_n15755_12275# GND GND sky130_fd_pr__nfet_01v8 ad=0p pd=0u as=0p ps=0u w=2e+06u l=150000u
X96 a_n22928_8431# fout0 VDD VDD sky130_fd_pr__pfet_01v8 ad=2.32e+12p pd=1.716e+07u as=0p ps=0u w=4e+06u l=150000u
X97 a_n21989_2481# a_n23475_2903# a_n22077_2481# GND sky130_fd_pr__nfet_01v8 ad=1.16e+12p pd=9.16e+06u as=5.8e+11p ps=4.58e+06u w=2e+06u l=150000u
X98 VDD a_n10117_5898# a_n10355_5995# VDD sky130_fd_pr__pfet_01v8 ad=0p pd=0u as=2.32e+12p ps=1.716e+07u w=4e+06u l=150000u
X99 VDD a_n11555_5898# a_n11793_5995# VDD sky130_fd_pr__pfet_01v8 ad=0p pd=0u as=2.32e+12p ps=1.716e+07u w=4e+06u l=150000u
X100 a_n5954_2477# a_n6002_2899# modi3 GND sky130_fd_pr__nfet_01v8 ad=0p pd=0u as=5.8e+11p ps=4.58e+06u w=2e+06u l=150000u
X101 a_n21308_2481# fout6 a_n21734_5903# GND sky130_fd_pr__nfet_01v8 ad=0p pd=0u as=5.8e+11p ps=4.58e+06u w=2e+06u l=150000u
X102 GND a_n23172_5903# a_n23427_2481# GND sky130_fd_pr__nfet_01v8 ad=0p pd=0u as=1.16e+12p ps=9.16e+06u w=2e+06u l=150000u
X103 VDD a_n12880_6001# a_n11112_5995# VDD sky130_fd_pr__pfet_01v8 ad=0p pd=0u as=0p ps=0u w=4e+06u l=150000u
X104 a_n10602_12359# a_n10992_8440# GND GND sky130_fd_pr__nfet_01v8 ad=1.16e+12p pd=9.16e+06u as=0p ps=0u w=2e+06u l=150000u
X105 VDD fout6 a_n23475_2903# VDD sky130_fd_pr__pfet_01v8 ad=0p pd=0u as=1.16e+12p ps=8.58e+06u w=4e+06u l=150000u
X106 a_n9164_12359# a_n9554_8440# GND GND sky130_fd_pr__nfet_01v8 ad=1.16e+12p pd=9.16e+06u as=0p ps=0u w=2e+06u l=150000u
X107 fout4 a_n2702_5867# VDD VDD sky130_fd_pr__pfet_01v8 ad=2.32e+12p pd=1.716e+07u as=0p ps=0u w=4e+06u l=150000u
X108 VDD fout3 a_n6002_2899# VDD sky130_fd_pr__pfet_01v8 ad=0p pd=0u as=1.16e+12p ps=8.58e+06u w=4e+06u l=150000u
X109 a_n4036_12366# a_n4084_12278# GND GND sky130_fd_pr__nfet_01v8 ad=0p pd=0u as=0p ps=0u w=2e+06u l=150000u
X110 a_n17810_11459# fout0 a_n16462_8436# VDD sky130_fd_pr__pfet_01v8 ad=1.16e+12p pd=8.58e+06u as=0p ps=0u w=4e+06u l=150000u
X111 a_n18722_2907# modi6 a_n18372_2483# GND sky130_fd_pr__nfet_01v8 ad=1.74e+12p pd=1.258e+07u as=3.48e+12p ps=2.516e+07u w=6e+06u l=150000u
X112 a_n4498_5996# fout3 a_n4604_2477# VDD sky130_fd_pr__pfet_01v8 ad=2.32e+12p pd=1.716e+07u as=1.16e+12p ps=8.58e+06u w=4e+06u l=150000u
X113 GND fout0 a_n17562_12353# GND sky130_fd_pr__nfet_01v8 ad=0p pd=0u as=5.8e+11p ps=4.58e+06u w=2e+06u l=150000u
X114 VDD modi0 a_n20158_11542# VDD sky130_fd_pr__pfet_01v8 ad=0p pd=0u as=2.32e+12p ps=1.716e+07u w=4e+06u l=150000u
X115 a_n24474_2912# modi VDD VDD sky130_fd_pr__pfet_01v8 ad=2.32e+12p pd=1.716e+07u as=0p ps=0u w=4e+06u l=150000u
X116 a_n18465_11548# fout0 a_n18665_11548# GND sky130_fd_pr__nfet_01v8 ad=3.48e+12p pd=2.516e+07u as=0p ps=0u w=6e+06u l=150000u
X117 modi2 a_n5892_12356# a_n3360_12358# GND sky130_fd_pr__nfet_01v8 ad=5.8e+11p pd=4.58e+06u as=1.16e+12p ps=9.16e+06u w=2e+06u l=150000u
X118 a_n3817_5996# a_n6002_2899# a_n4261_5899# VDD sky130_fd_pr__pfet_01v8 ad=2.32e+12p pd=1.716e+07u as=1.16e+12p ps=8.58e+06u w=4e+06u l=150000u
X119 modo a_n23348_12347# a_n20815_12350# GND sky130_fd_pr__nfet_01v8 ad=5.8e+11p pd=4.58e+06u as=0p ps=0u w=2e+06u l=150000u
X120 a_n10992_8440# a_n11697_12356# a_n11277_8440# VDD sky130_fd_pr__pfet_01v8 ad=1.16e+12p pd=8.58e+06u as=0p ps=0u w=4e+06u l=150000u
X121 a_n12157_11550# a_n12888_11551# fout2 GND sky130_fd_pr__nfet_01v8 ad=3.48e+12p pd=2.516e+07u as=1.74e+12p ps=1.258e+07u w=6e+06u l=150000u
X122 a_n9840_8440# a_n9889_12279# VDD VDD sky130_fd_pr__pfet_01v8 ad=0p pd=0u as=0p ps=0u w=4e+06u l=150000u
X123 a_n21972_6000# fout6 a_n22077_2481# VDD sky130_fd_pr__pfet_01v8 ad=2.32e+12p pd=1.716e+07u as=1.16e+12p ps=8.58e+06u w=4e+06u l=150000u
X124 a_n14633_2483# a_n16325_2475# GND GND sky130_fd_pr__nfet_01v8 ad=0p pd=0u as=0p ps=0u w=6e+06u l=150000u
X125 a_n24451_11543# P0 a_n24539_11543# GND sky130_fd_pr__nfet_01v8 ad=3.48e+12p pd=2.516e+07u as=1.74e+12p ps=1.258e+07u w=6e+06u l=150000u
X126 a_n11944_11462# fout1 a_n10596_8440# VDD sky130_fd_pr__pfet_01v8 ad=1.16e+12p pd=8.58e+06u as=0p ps=0u w=4e+06u l=150000u
X127 a_n17674_2475# a_n17722_2897# modi5 GND sky130_fd_pr__nfet_01v8 ad=1.16e+12p pd=9.16e+06u as=5.8e+11p ps=4.58e+06u w=2e+06u l=150000u
X128 a_n3360_12358# a_n3749_8439# GND GND sky130_fd_pr__nfet_01v8 ad=0p pd=0u as=0p ps=0u w=2e+06u l=150000u
X129 a_n11697_12356# fout1 VDD VDD sky130_fd_pr__pfet_01v8 ad=1.16e+12p pd=8.58e+06u as=0p ps=0u w=4e+06u l=150000u
X130 a_n18722_2907# fout6 VDD VDD sky130_fd_pr__pfet_01v8 ad=0p pd=0u as=0p ps=0u w=4e+06u l=150000u
X131 a_n14423_5865# P6 a_n13930_2482# GND sky130_fd_pr__nfet_01v8 ad=1.74e+12p pd=1.258e+07u as=0p ps=0u w=6e+06u l=150000u
X132 a_n24125_2489# fout GND GND sky130_fd_pr__nfet_01v8 ad=3.48e+12p pd=2.516e+07u as=0p ps=0u w=6e+06u l=150000u
X133 VDD fout0 a_n20158_11542# VDD sky130_fd_pr__pfet_01v8 ad=0p pd=0u as=0p ps=0u w=4e+06u l=150000u
X134 a_n21291_6000# a_n23475_2903# a_n21734_5903# VDD sky130_fd_pr__pfet_01v8 ad=2.32e+12p pd=1.716e+07u as=1.16e+12p ps=8.58e+06u w=4e+06u l=150000u
X135 VDD modo a_n24539_11543# VDD sky130_fd_pr__pfet_01v8 ad=0p pd=0u as=0p ps=0u w=4e+06u l=150000u
X136 a_n5273_2477# fout3 a_n5699_5899# GND sky130_fd_pr__nfet_01v8 ad=0p pd=0u as=5.8e+11p ps=4.58e+06u w=2e+06u l=150000u
X137 GND a_n17419_5897# a_n17674_2475# GND sky130_fd_pr__nfet_01v8 ad=0p pd=0u as=0p ps=0u w=2e+06u l=150000u
X138 VDD a_n18753_11548# fout1 VDD sky130_fd_pr__pfet_01v8 ad=0p pd=0u as=2.32e+12p ps=1.716e+07u w=4e+06u l=150000u
X139 a_n4035_8439# a_n4084_12278# VDD VDD sky130_fd_pr__pfet_01v8 ad=2.32e+12p pd=1.716e+07u as=0p ps=0u w=4e+06u l=150000u
X140 a_n16219_5994# fout5 a_n16325_2475# VDD sky130_fd_pr__pfet_01v8 ad=2.32e+12p pd=1.716e+07u as=1.16e+12p ps=8.58e+06u w=4e+06u l=150000u
X141 GND fout5 a_n9691_2476# GND sky130_fd_pr__nfet_01v8 ad=0p pd=0u as=1.16e+12p ps=9.16e+06u w=2e+06u l=150000u
X142 GND a_n23595_11454# a_n23808_11542# GND sky130_fd_pr__nfet_01v8 ad=0p pd=0u as=3.48e+12p ps=2.516e+07u w=6e+06u l=150000u
X143 a_n5473_8439# fout3 VDD VDD sky130_fd_pr__pfet_01v8 ad=2.32e+12p pd=1.716e+07u as=0p ps=0u w=4e+06u l=150000u
X144 GND a_n11944_11462# a_n12157_11550# GND sky130_fd_pr__nfet_01v8 ad=0p pd=0u as=0p ps=0u w=6e+06u l=150000u
X145 a_n21205_8431# a_n23348_12347# a_n21491_8431# VDD sky130_fd_pr__pfet_01v8 ad=1.16e+12p pd=8.58e+06u as=0p ps=0u w=4e+06u l=150000u
X146 a_n14284_11547# modi1 a_n14372_11547# GND sky130_fd_pr__nfet_01v8 ad=0p pd=0u as=1.74e+12p ps=1.258e+07u w=6e+06u l=150000u
X147 VDD P0 a_n24539_11543# VDD sky130_fd_pr__pfet_01v8 ad=0p pd=0u as=0p ps=0u w=4e+06u l=150000u
X148 a_n4792_8439# a_n5187_8439# VDD VDD sky130_fd_pr__pfet_01v8 ad=2.32e+12p pd=1.716e+07u as=0p ps=0u w=4e+06u l=150000u
X149 a_n3354_8439# a_n3749_8439# VDD VDD sky130_fd_pr__pfet_01v8 ad=2.32e+12p pd=1.716e+07u as=0p ps=0u w=4e+06u l=150000u
X150 a_n15538_5994# a_n17722_2897# a_n15981_5897# VDD sky130_fd_pr__pfet_01v8 ad=0p pd=0u as=1.16e+12p ps=8.58e+06u w=4e+06u l=150000u
X151 VDD a_n21734_5903# a_n21972_6000# VDD sky130_fd_pr__pfet_01v8 ad=0p pd=0u as=0p ps=0u w=4e+06u l=150000u
X152 modo fin a_n20810_8431# VDD sky130_fd_pr__pfet_01v8 ad=1.16e+12p pd=8.58e+06u as=2.32e+12p ps=1.716e+07u w=4e+06u l=150000u
X153 a_n6652_2485# fout4 GND GND sky130_fd_pr__nfet_01v8 ad=0p pd=0u as=0p ps=0u w=6e+06u l=150000u
X154 a_n17722_2897# fout5 GND GND sky130_fd_pr__nfet_01v8 ad=5.8e+11p pd=4.58e+06u as=0p ps=0u w=2e+06u l=150000u
X155 fout a_n22077_2481# VDD VDD sky130_fd_pr__pfet_01v8 ad=0p pd=0u as=0p ps=0u w=4e+06u l=150000u
X156 VDD P3 a_n7083_11551# VDD sky130_fd_pr__pfet_01v8 ad=0p pd=0u as=0p ps=0u w=4e+06u l=150000u
X157 a_n6140_11462# a_n5892_12356# a_n4797_12358# GND sky130_fd_pr__nfet_01v8 ad=5.8e+11p pd=4.58e+06u as=0p ps=0u w=2e+06u l=150000u
X158 a_n3749_8439# a_n5892_12356# a_n4035_8439# VDD sky130_fd_pr__pfet_01v8 ad=1.16e+12p pd=8.58e+06u as=0p ps=0u w=4e+06u l=150000u
X159 a_n21492_12358# a_n21540_12270# GND GND sky130_fd_pr__nfet_01v8 ad=1.16e+12p pd=9.16e+06u as=0p ps=0u w=2e+06u l=150000u
X160 VDD a_n6140_11462# fout3 VDD sky130_fd_pr__pfet_01v8 ad=0p pd=0u as=0p ps=0u w=4e+06u l=150000u
X161 a_n5892_12356# fout2 VDD VDD sky130_fd_pr__pfet_01v8 ad=1.16e+12p pd=8.58e+06u as=0p ps=0u w=4e+06u l=150000u
X162 a_n14423_5865# P6 VDD VDD sky130_fd_pr__pfet_01v8 ad=0p pd=0u as=0p ps=0u w=4e+06u l=150000u
X163 fout6 a_n14423_5865# VDD VDD sky130_fd_pr__pfet_01v8 ad=0p pd=0u as=0p ps=0u w=4e+06u l=150000u
X164 a_n7001_2908# modi4 VDD VDD sky130_fd_pr__pfet_01v8 ad=0p pd=0u as=0p ps=0u w=4e+06u l=150000u
X165 a_n16857_8436# fout0 a_n17149_12355# GND sky130_fd_pr__nfet_01v8 ad=5.8e+11p pd=4.58e+06u as=0p ps=0u w=2e+06u l=150000u
X166 a_n15030_12355# a_n15419_8436# GND GND sky130_fd_pr__nfet_01v8 ad=1.16e+12p pd=9.16e+06u as=0p ps=0u w=2e+06u l=150000u
X167 a_n23427_2481# a_n23475_2903# modi6 GND sky130_fd_pr__nfet_01v8 ad=0p pd=0u as=5.8e+11p ps=4.58e+06u w=2e+06u l=150000u
X168 GND modi0 a_n18465_11548# GND sky130_fd_pr__nfet_01v8 ad=0p pd=0u as=0p ps=0u w=6e+06u l=150000u
X169 a_n11944_11462# a_n11697_12356# a_n10602_12359# GND sky130_fd_pr__nfet_01v8 ad=5.8e+11p pd=4.58e+06u as=0p ps=0u w=2e+06u l=150000u
X170 GND a_n24497_6006# a_n22746_2481# GND sky130_fd_pr__nfet_01v8 ad=0p pd=0u as=1.16e+12p ps=9.16e+06u w=2e+06u l=150000u
X171 fout4 a_n4604_2477# VDD VDD sky130_fd_pr__pfet_01v8 ad=0p pd=0u as=0p ps=0u w=4e+06u l=150000u
X172 a_n12857_2907# modi5 a_n12508_2484# GND sky130_fd_pr__nfet_01v8 ad=1.74e+12p pd=1.258e+07u as=3.48e+12p ps=2.516e+07u w=6e+06u l=150000u
X173 a_n18372_2483# fout6 GND GND sky130_fd_pr__nfet_01v8 ad=0p pd=0u as=0p ps=0u w=6e+06u l=150000u
X174 a_n22746_2481# fout6 a_n23172_5903# GND sky130_fd_pr__nfet_01v8 ad=0p pd=0u as=5.8e+11p ps=4.58e+06u w=2e+06u l=150000u
X175 VDD modi0 a_n18753_11548# VDD sky130_fd_pr__pfet_01v8 ad=0p pd=0u as=0p ps=0u w=4e+06u l=150000u
X176 a_n20070_11542# modi0 a_n20158_11542# GND sky130_fd_pr__nfet_01v8 ad=0p pd=0u as=1.74e+12p ps=1.258e+07u w=6e+06u l=150000u
X177 GND a_n15981_5897# a_n16237_2475# GND sky130_fd_pr__nfet_01v8 ad=0p pd=0u as=0p ps=0u w=2e+06u l=150000u
X178 a_n24251_11543# fin a_n24451_11543# GND sky130_fd_pr__nfet_01v8 ad=3.48e+12p pd=2.516e+07u as=0p ps=0u w=6e+06u l=150000u
X179 a_n6995_11551# P3 a_n7083_11551# GND sky130_fd_pr__nfet_01v8 ad=3.48e+12p pd=2.516e+07u as=1.74e+12p ps=1.258e+07u w=6e+06u l=150000u
X180 a_n15705_8436# a_n15755_12275# VDD VDD sky130_fd_pr__pfet_01v8 ad=0p pd=0u as=0p ps=0u w=4e+06u l=150000u
X181 VDD a_n24474_2912# a_n24497_6006# VDD sky130_fd_pr__pfet_01v8 ad=0p pd=0u as=1.16e+12p ps=8.58e+06u w=4e+06u l=150000u
X182 a_n5187_8439# fout2 a_n5478_12358# GND sky130_fd_pr__nfet_01v8 ad=5.8e+11p pd=4.58e+06u as=1.16e+12p ps=9.16e+06u w=2e+06u l=150000u
X183 VDD fout3 a_n2702_11550# VDD sky130_fd_pr__pfet_01v8 ad=0p pd=0u as=2.32e+12p ps=1.716e+07u w=4e+06u l=150000u
X184 a_n8558_5866# fout4 VDD VDD sky130_fd_pr__pfet_01v8 ad=0p pd=0u as=0p ps=0u w=4e+06u l=150000u
X185 VDD P1 a_n18753_11548# VDD sky130_fd_pr__pfet_01v8 ad=0p pd=0u as=0p ps=0u w=4e+06u l=150000u
X186 a_n5936_5996# fout3 modi3 VDD sky130_fd_pr__pfet_01v8 ad=0p pd=0u as=1.16e+12p ps=8.58e+06u w=4e+06u l=150000u
X187 modi0 a_n17562_12353# a_n15030_12355# GND sky130_fd_pr__nfet_01v8 ad=5.8e+11p pd=4.58e+06u as=0p ps=0u w=2e+06u l=150000u
X188 a_n11810_2476# a_n11858_2898# modi4 GND sky130_fd_pr__nfet_01v8 ad=1.16e+12p pd=9.16e+06u as=5.8e+11p ps=4.58e+06u w=2e+06u l=150000u
X189 a_n23595_11454# a_n23348_12347# a_n22253_12350# GND sky130_fd_pr__nfet_01v8 ad=5.8e+11p pd=4.58e+06u as=0p ps=0u w=2e+06u l=150000u
X190 VDD a_n17810_11459# fout1 VDD sky130_fd_pr__pfet_01v8 ad=0p pd=0u as=0p ps=0u w=4e+06u l=150000u
X191 a_n10372_2476# a_n11858_2898# a_n10460_2476# GND sky130_fd_pr__nfet_01v8 ad=1.16e+12p pd=9.16e+06u as=5.8e+11p ps=4.58e+06u w=2e+06u l=150000u
X192 a_n2614_11550# modi3 a_n2702_11550# GND sky130_fd_pr__nfet_01v8 ad=0p pd=0u as=1.74e+12p ps=1.258e+07u w=6e+06u l=150000u
X193 a_n8769_2484# a_n10460_2476# GND GND sky130_fd_pr__nfet_01v8 ad=0p pd=0u as=0p ps=0u w=6e+06u l=150000u
X194 GND a_n12880_6001# a_n11129_2476# GND sky130_fd_pr__nfet_01v8 ad=0p pd=0u as=0p ps=0u w=2e+06u l=150000u
X195 a_n20175_5871# P7 a_n19682_2488# GND sky130_fd_pr__nfet_01v8 ad=1.74e+12p pd=1.258e+07u as=0p ps=0u w=6e+06u l=150000u
X196 VDD fout2 a_n7083_11551# VDD sky130_fd_pr__pfet_01v8 ad=0p pd=0u as=0p ps=0u w=4e+06u l=150000u
X197 a_n23409_6000# fout6 modi6 VDD sky130_fd_pr__pfet_01v8 ad=0p pd=0u as=1.16e+12p ps=8.58e+06u w=4e+06u l=150000u
X198 a_n20175_5871# fout6 VDD VDD sky130_fd_pr__pfet_01v8 ad=0p pd=0u as=0p ps=0u w=4e+06u l=150000u
X199 GND a_n10117_5898# a_n10372_2476# GND sky130_fd_pr__nfet_01v8 ad=0p pd=0u as=0p ps=0u w=2e+06u l=150000u
X200 GND a_n11555_5898# a_n11810_2476# GND sky130_fd_pr__nfet_01v8 ad=0p pd=0u as=0p ps=0u w=2e+06u l=150000u
X201 a_n22247_8431# a_n22643_8431# VDD VDD sky130_fd_pr__pfet_01v8 ad=2.32e+12p pd=1.716e+07u as=0p ps=0u w=4e+06u l=150000u
X202 a_n12800_11551# P2 a_n12888_11551# GND sky130_fd_pr__nfet_01v8 ad=3.48e+12p pd=2.516e+07u as=1.74e+12p ps=1.258e+07u w=6e+06u l=150000u
X203 a_n4084_12278# a_n2702_11550# VDD VDD sky130_fd_pr__pfet_01v8 ad=1.16e+12p pd=8.58e+06u as=0p ps=0u w=4e+06u l=150000u
X204 a_n9691_2476# fout4 a_n10117_5898# GND sky130_fd_pr__nfet_01v8 ad=0p pd=0u as=5.8e+11p ps=4.58e+06u w=2e+06u l=150000u
X205 a_n19882_2488# modi6 GND GND sky130_fd_pr__nfet_01v8 ad=0p pd=0u as=0p ps=0u w=6e+06u l=150000u
X206 a_n22728_6000# a_n23475_2903# a_n23172_5903# VDD sky130_fd_pr__pfet_01v8 ad=0p pd=0u as=1.16e+12p ps=8.58e+06u w=4e+06u l=150000u
X207 a_n2702_5867# P4 a_n2209_2484# GND sky130_fd_pr__nfet_01v8 ad=1.74e+12p pd=1.258e+07u as=0p ps=0u w=6e+06u l=150000u
X208 fout5 a_n8558_5866# VDD VDD sky130_fd_pr__pfet_01v8 ad=0p pd=0u as=0p ps=0u w=4e+06u l=150000u
X209 VDD fout4 a_n11858_2898# VDD sky130_fd_pr__pfet_01v8 ad=0p pd=0u as=1.16e+12p ps=8.58e+06u w=4e+06u l=150000u
X210 GND a_n17810_11459# a_n18023_11547# GND sky130_fd_pr__nfet_01v8 ad=0p pd=0u as=0p ps=0u w=6e+06u l=150000u
X211 modi1 a_n11697_12356# a_n9164_12359# GND sky130_fd_pr__nfet_01v8 ad=5.8e+11p pd=4.58e+06u as=0p ps=0u w=2e+06u l=150000u
X212 a_n17657_5994# fout5 modi5 VDD sky130_fd_pr__pfet_01v8 ad=0p pd=0u as=1.16e+12p ps=8.58e+06u w=4e+06u l=150000u
X213 a_n22643_8431# a_n23348_12347# a_n22928_8431# VDD sky130_fd_pr__pfet_01v8 ad=1.16e+12p pd=8.58e+06u as=0p ps=0u w=4e+06u l=150000u
X214 a_n2409_2484# modi3 GND GND sky130_fd_pr__nfet_01v8 ad=0p pd=0u as=0p ps=0u w=6e+06u l=150000u
X215 a_n9674_5995# a_n11858_2898# a_n10117_5898# VDD sky130_fd_pr__pfet_01v8 ad=0p pd=0u as=1.16e+12p ps=8.58e+06u w=4e+06u l=150000u
X216 GND a_n8507_11550# a_n9889_12279# GND sky130_fd_pr__nfet_01v8 ad=0p pd=0u as=5.8e+11p ps=4.58e+06u w=2e+06u l=150000u
X217 a_n11858_2898# fout4 GND GND sky130_fd_pr__nfet_01v8 ad=5.8e+11p pd=4.58e+06u as=0p ps=0u w=2e+06u l=150000u
X218 a_n5478_12358# fout3 GND GND sky130_fd_pr__nfet_01v8 ad=0p pd=0u as=0p ps=0u w=2e+06u l=150000u
X219 a_n23595_11454# fin a_n22247_8431# VDD sky130_fd_pr__pfet_01v8 ad=1.16e+12p pd=8.58e+06u as=0p ps=0u w=4e+06u l=150000u
X220 VDD a_n23595_11454# fout0 VDD sky130_fd_pr__pfet_01v8 ad=0p pd=0u as=0p ps=0u w=4e+06u l=150000u
X221 VDD modi2 a_n8507_11550# VDD sky130_fd_pr__pfet_01v8 ad=0p pd=0u as=0p ps=0u w=4e+06u l=150000u
X222 GND a_n21734_5903# a_n21989_2481# GND sky130_fd_pr__nfet_01v8 ad=0p pd=0u as=0p ps=0u w=2e+06u l=150000u
X223 a_n8558_5866# P5 VDD VDD sky130_fd_pr__pfet_01v8 ad=0p pd=0u as=0p ps=0u w=4e+06u l=150000u
X224 a_n9159_8440# a_n9554_8440# VDD VDD sky130_fd_pr__pfet_01v8 ad=2.32e+12p pd=1.716e+07u as=0p ps=0u w=4e+06u l=150000u
X225 a_n8066_2483# fout4 a_n8266_2483# GND sky130_fd_pr__nfet_01v8 ad=3.48e+12p pd=2.516e+07u as=0p ps=0u w=6e+06u l=150000u
X226 VDD a_n15981_5897# a_n16219_5994# VDD sky130_fd_pr__pfet_01v8 ad=0p pd=0u as=0p ps=0u w=4e+06u l=150000u
X227 a_n16993_2475# fout5 a_n17419_5897# GND sky130_fd_pr__nfet_01v8 ad=1.16e+12p pd=9.16e+06u as=5.8e+11p ps=4.58e+06u w=2e+06u l=150000u
X228 VDD a_n4261_5899# a_n4498_5996# VDD sky130_fd_pr__pfet_01v8 ad=0p pd=0u as=0p ps=0u w=4e+06u l=150000u
X229 GND modo a_n24251_11543# GND sky130_fd_pr__nfet_01v8 ad=0p pd=0u as=0p ps=0u w=6e+06u l=150000u
X230 a_n16468_12355# a_n16857_8436# GND GND sky130_fd_pr__nfet_01v8 ad=0p pd=0u as=0p ps=0u w=2e+06u l=150000u
X231 VDD modi1 a_n12888_11551# VDD sky130_fd_pr__pfet_01v8 ad=0p pd=0u as=0p ps=0u w=4e+06u l=150000u
X232 a_n2702_5867# P4 VDD VDD sky130_fd_pr__pfet_01v8 ad=0p pd=0u as=0p ps=0u w=4e+06u l=150000u
X233 a_n11283_12359# fout2 GND GND sky130_fd_pr__nfet_01v8 ad=0p pd=0u as=0p ps=0u w=2e+06u l=150000u
X234 GND fout2 a_n8419_11550# GND sky130_fd_pr__nfet_01v8 ad=0p pd=0u as=0p ps=0u w=6e+06u l=150000u
X235 a_n12508_2484# fout5 GND GND sky130_fd_pr__nfet_01v8 ad=0p pd=0u as=0p ps=0u w=6e+06u l=150000u
X236 a_n14130_2482# modi5 GND GND sky130_fd_pr__nfet_01v8 ad=0p pd=0u as=0p ps=0u w=6e+06u l=150000u
X237 fout a_n20175_5871# a_n20386_2489# GND sky130_fd_pr__nfet_01v8 ad=1.74e+12p pd=1.258e+07u as=0p ps=0u w=6e+06u l=150000u
X238 VDD a_n7023_6002# a_n5255_5996# VDD sky130_fd_pr__pfet_01v8 ad=0p pd=0u as=0p ps=0u w=4e+06u l=150000u
X239 VDD fout4 a_n3817_5996# VDD sky130_fd_pr__pfet_01v8 ad=0p pd=0u as=0p ps=0u w=4e+06u l=150000u
X240 VDD fout1 a_n14372_11547# VDD sky130_fd_pr__pfet_01v8 ad=0p pd=0u as=0p ps=0u w=4e+06u l=150000u
X241 VDD P2 a_n12888_11551# VDD sky130_fd_pr__pfet_01v8 ad=0p pd=0u as=0p ps=0u w=4e+06u l=150000u
X242 a_n16976_5994# a_n17722_2897# a_n17419_5897# VDD sky130_fd_pr__pfet_01v8 ad=2.32e+12p pd=1.716e+07u as=1.16e+12p ps=8.58e+06u w=4e+06u l=150000u
X243 VDD fout5 a_n17722_2897# VDD sky130_fd_pr__pfet_01v8 ad=0p pd=0u as=1.16e+12p ps=8.58e+06u w=4e+06u l=150000u
X244 a_n2702_5867# modi3 VDD VDD sky130_fd_pr__pfet_01v8 ad=0p pd=0u as=0p ps=0u w=4e+06u l=150000u
X245 a_n20810_8431# a_n21205_8431# VDD VDD sky130_fd_pr__pfet_01v8 ad=0p pd=0u as=0p ps=0u w=4e+06u l=150000u
X246 VDD modi3 a_n2702_11550# VDD sky130_fd_pr__pfet_01v8 ad=0p pd=0u as=0p ps=0u w=4e+06u l=150000u