* NGSPICE file created from CP.ext - technology: sky130A

.subckt CP UBP UP VBN DN DNB Nbais p_bais VBP net3 net5 net6 VOP net6_ota net5_ota
+ net3_ota net1_ota net1 net2 net4 net7 VON VDD GND
X0 net6.t6 UBP.t2 VOP.t0 VDD.t23 sky130_fd_pr__pfet_01v8 ad=0p pd=0u as=0p ps=0u w=1e+07u l=150000u
X1 VDD.t44 VDD.t45 VDD sky130_fd_pr__res_iso_pw w=2.65e+06u l=3e+07u
X2 w_4269_n7633# VBN.t1 VDD sky130_fd_pr__res_iso_pw w=2.65e+06u l=3e+07u
X3 VDD.t55 p_bais.t5 net1_ota.t2 VDD.t54 sky130_fd_pr__pfet_01v8 ad=0p pd=0u as=0p ps=0u w=4e+06u l=600000u
X4 net5.t10 VBN.t3 net4.t8 GND.t37 sky130_fd_pr__nfet_01v8 ad=0p pd=0u as=0p ps=0u w=2e+06u l=600000u
X5 VBP.t0 p_bais.t2 VDD sky130_fd_pr__res_iso_pw w=2.65e+06u l=3e+07u
X6 VDD.t57 p_bais.t6 net1_ota.t1 VDD.t56 sky130_fd_pr__pfet_01v8 ad=0p pd=0u as=0p ps=0u w=4e+06u l=600000u
X7 net3_ota.t3 VBP.t5 VON.t2 VDD.t21 sky130_fd_pr__pfet_01v8 ad=0p pd=0u as=0p ps=0u w=1e+06u l=150000u
X8 VBP.t3 p_bais.t3 VDD sky130_fd_pr__res_iso_pw w=2.65e+06u l=3e+07u
X9 net4.t0 Nbais.t4 GND.t3 GND.t2 sky130_fd_pr__nfet_01v8 ad=0p pd=0u as=0p ps=0u w=2e+06u l=600000u
X10 DNB.t1 DN.t0 GND.t58 GND.t57 sky130_fd_pr__nfet_01v8 ad=0p pd=0u as=0p ps=0u w=1e+06u l=150000u
X11 VBP.t2 VBN.t4 net1.t1 GND.t36 sky130_fd_pr__nfet_01v8 ad=0p pd=0u as=0p ps=0u w=2e+06u l=600000u
X12 net4.t17 Nbais.t5 GND.t46 GND.t45 sky130_fd_pr__nfet_01v8 ad=0p pd=0u as=0p ps=0u w=2e+06u l=600000u
X13 VDD.t3 VDD.t4 VDD sky130_fd_pr__res_iso_pw w=2.65e+06u l=3e+07u
X14 net5.t9 VBN.t5 net4.t12 GND.t35 sky130_fd_pr__nfet_01v8 ad=0p pd=0u as=0p ps=0u w=2e+06u l=600000u
X15 GND.t40 a_48058_n6837.t2 net5_ota.t1 GND.t39 sky130_fd_pr__nfet_01v8 ad=0p pd=0u as=0p ps=0u w=1.3e+06u l=1e+06u
X16 net4.t5 Nbais.t6 GND.t15 GND.t14 sky130_fd_pr__nfet_01v8 ad=0p pd=0u as=0p ps=0u w=2e+06u l=600000u
X17 net7.t9 p_bais.t7 VDD.t59 VDD.t58 sky130_fd_pr__pfet_01v8 ad=0p pd=0u as=0p ps=0u w=6.66e+06u l=600000u
X18 VON.t1 DNB.t2 net5.t0 GND.t18 sky130_fd_pr__nfet_01v8 ad=0p pd=0u as=0p ps=0u w=4e+06u l=150000u
X19 w_4269_n7633# VBN.t0 VDD sky130_fd_pr__res_iso_pw w=2.65e+06u l=3e+07u
X20 net7.t8 p_bais.t8 VDD.t47 VDD.t46 sky130_fd_pr__pfet_01v8 ad=0p pd=0u as=0p ps=0u w=6.66e+06u l=600000u
X21 net5.t8 VBN.t6 net4.t7 GND.t34 sky130_fd_pr__nfet_01v8 ad=0p pd=0u as=0p ps=0u w=2e+06u l=600000u
X22 VOP.t1 DN.t1 net5.t11 GND.t38 sky130_fd_pr__nfet_01v8 ad=0p pd=0u as=0p ps=0u w=4e+06u l=150000u
X23 net6.t7 VBP.t6 net7.t19 VDD.t24 sky130_fd_pr__pfet_01v8 ad=0p pd=0u as=0p ps=0u w=6.66e+06u l=600000u
X24 UBP.t0 UP.t0 VDD.t20 VDD.t19 sky130_fd_pr__pfet_01v8 ad=0p pd=0u as=0p ps=0u w=2e+06u l=150000u
X25 a_16669_n8264.t1 VOP.t2 net1_ota.t3 GND.t19 sky130_fd_pr__nfet_01v8 ad=0p pd=0u as=0p ps=0u w=1e+06u l=150000u
X26 net4.t2 Nbais.t7 GND.t9 GND.t8 sky130_fd_pr__nfet_01v8 ad=0p pd=0u as=0p ps=0u w=2e+06u l=600000u
X27 net6.t8 VBP.t7 net7.t18 VDD.t25 sky130_fd_pr__pfet_01v8 ad=0p pd=0u as=0p ps=0u w=6.66e+06u l=600000u
X28 p_bais.t1 VBP.t8 net3.t3 VDD.t26 sky130_fd_pr__pfet_01v8 ad=0p pd=0u as=0p ps=0u w=6.66e+06u l=600000u
X29 net5.t7 VBN.t7 net4.t15 GND.t33 sky130_fd_pr__nfet_01v8 ad=0p pd=0u as=0p ps=0u w=2e+06u l=600000u
X30 net6_ota.t0 VON.t4 GND.t0 VDD.t2 sky130_fd_pr__pfet_01v8 ad=0p pd=0u as=0p ps=0u w=4e+06u l=150000u
X31 net4.t4 Nbais.t8 GND.t13 GND.t12 sky130_fd_pr__nfet_01v8 ad=0p pd=0u as=0p ps=0u w=2e+06u l=600000u
X32 net6.t0 VBP.t9 net7.t17 VDD.t5 sky130_fd_pr__pfet_01v8 ad=0p pd=0u as=0p ps=0u w=6.66e+06u l=600000u
X33 net7.t7 p_bais.t9 VDD.t49 VDD.t48 sky130_fd_pr__pfet_01v8 ad=0p pd=0u as=0p ps=0u w=6.66e+06u l=600000u
X34 net5.t6 VBN.t8 net4.t10 GND.t32 sky130_fd_pr__nfet_01v8 ad=0p pd=0u as=0p ps=0u w=2e+06u l=600000u
X35 a_16669_n8264.t3 Nbais.t9 GND.t17 GND.t16 sky130_fd_pr__nfet_01v8 ad=0p pd=0u as=0p ps=0u w=2e+06u l=600000u
X36 net1.t3 Nbais.t10 GND.t52 GND.t51 sky130_fd_pr__nfet_01v8 ad=0p pd=0u as=0p ps=0u w=2e+06u l=600000u
X37 net6.t1 VBP.t10 net7.t16 VDD.t6 sky130_fd_pr__pfet_01v8 ad=0p pd=0u as=0p ps=0u w=6.66e+06u l=600000u
X38 p_bais.t0 VBP.t11 net3.t2 VDD.t7 sky130_fd_pr__pfet_01v8 ad=0p pd=0u as=0p ps=0u w=6.66e+06u l=600000u
X39 w_4269_n7633# Nbais.t1 VDD sky130_fd_pr__res_iso_pw w=2.65e+06u l=3e+07u
X40 net7.t6 p_bais.t10 VDD.t51 VDD.t50 sky130_fd_pr__pfet_01v8 ad=0p pd=0u as=0p ps=0u w=6.66e+06u l=600000u
X41 net4.t1 Nbais.t11 GND.t7 GND.t6 sky130_fd_pr__nfet_01v8 ad=0p pd=0u as=0p ps=0u w=2e+06u l=600000u
X42 UBP.t1 UP.t1 GND.t21 GND.t20 sky130_fd_pr__nfet_01v8 ad=0p pd=0u as=0p ps=0u w=1e+06u l=150000u
X43 net5.t5 VBN.t9 net4.t13 GND.t31 sky130_fd_pr__nfet_01v8 ad=0p pd=0u as=0p ps=0u w=2e+06u l=600000u
X44 net1_ota.t0 VBP.t12 a_48058_n6837.t0 VDD.t27 sky130_fd_pr__pfet_01v8 ad=0p pd=0u as=0p ps=0u w=1e+06u l=150000u
X45 net6_ota.t1 p_bais.t11 VDD.t53 VDD.t52 sky130_fd_pr__pfet_01v8 ad=0p pd=0u as=0p ps=0u w=6.66e+06u l=600000u
X46 VDD.t36 p_bais.t12 net3_ota.t2 VDD.t35 sky130_fd_pr__pfet_01v8 ad=0p pd=0u as=0p ps=0u w=4e+06u l=600000u
X47 net3.t1 p_bais.t13 VDD.t38 VDD.t37 sky130_fd_pr__pfet_01v8 ad=0p pd=0u as=0p ps=0u w=6.66e+06u l=600000u
X48 VDD.t40 p_bais.t14 net3_ota.t1 VDD.t39 sky130_fd_pr__pfet_01v8 ad=0p pd=0u as=0p ps=0u w=4e+06u l=600000u
X49 w_4269_n7633# VBN.t2 VDD sky130_fd_pr__res_iso_pw w=2.65e+06u l=3e+07u
X50 VBP.t1 VBN.t10 net1.t0 GND.t30 sky130_fd_pr__nfet_01v8 ad=0p pd=0u as=0p ps=0u w=2e+06u l=600000u
X51 net7.t5 p_bais.t15 VDD.t42 VDD.t41 sky130_fd_pr__pfet_01v8 ad=0p pd=0u as=0p ps=0u w=6.66e+06u l=600000u
X52 Nbais.t0 VBN.t11 net2.t0 GND.t29 sky130_fd_pr__nfet_01v8 ad=0p pd=0u as=0p ps=0u w=2e+06u l=600000u
X53 DNB.t0 DN.t2 VDD.t1 VDD.t0 sky130_fd_pr__pfet_01v8 ad=0p pd=0u as=0p ps=0u w=2e+06u l=150000u
X54 net7.t4 p_bais.t16 VDD.t12 VDD.t11 sky130_fd_pr__pfet_01v8 ad=0p pd=0u as=0p ps=0u w=6.66e+06u l=600000u
X55 GND.t28 VBN.t12 VON.t3 GND.t27 sky130_fd_pr__nfet_01v8 ad=0p pd=0u as=0p ps=0u w=1e+06u l=150000u
X56 w_4269_n7633# Nbais.t3 VDD sky130_fd_pr__res_iso_pw w=2.65e+06u l=3e+07u
X57 net5.t4 VBN.t13 net4.t14 GND.t26 sky130_fd_pr__nfet_01v8 ad=0p pd=0u as=0p ps=0u w=2e+06u l=600000u
X58 net6.t5 UP.t2 VON.t0 VDD.t22 sky130_fd_pr__pfet_01v8 ad=0p pd=0u as=0p ps=0u w=1e+07u l=150000u
X59 net7.t3 p_bais.t17 VDD.t14 VDD.t13 sky130_fd_pr__pfet_01v8 ad=0p pd=0u as=0p ps=0u w=6.66e+06u l=600000u
X60 net5.t3 VBN.t14 net4.t9 GND.t25 sky130_fd_pr__nfet_01v8 ad=0p pd=0u as=0p ps=0u w=2e+06u l=600000u
X61 net7.t2 p_bais.t18 VDD.t16 VDD.t15 sky130_fd_pr__pfet_01v8 ad=0p pd=0u as=0p ps=0u w=6.66e+06u l=600000u
X62 a_16669_n8264.t2 Nbais.t12 GND.t48 GND.t47 sky130_fd_pr__nfet_01v8 ad=0p pd=0u as=0p ps=0u w=2e+06u l=600000u
X63 net4.t16 Nbais.t13 GND.t44 GND.t43 sky130_fd_pr__nfet_01v8 ad=0p pd=0u as=0p ps=0u w=2e+06u l=600000u
X64 net1.t2 Nbais.t14 GND.t5 GND.t4 sky130_fd_pr__nfet_01v8 ad=0p pd=0u as=0p ps=0u w=2e+06u l=600000u
X65 net7.t1 p_bais.t19 VDD.t18 VDD.t17 sky130_fd_pr__pfet_01v8 ad=0p pd=0u as=0p ps=0u w=6.66e+06u l=600000u
X66 net5.t2 VBN.t15 net4.t11 GND.t24 sky130_fd_pr__nfet_01v8 ad=0p pd=0u as=0p ps=0u w=2e+06u l=600000u
X67 GND.t50 a_48058_n6837.t3 GND.t49 GND.t39 sky130_fd_pr__nfet_01v8 ad=0p pd=0u as=0p ps=0u w=1.3e+06u l=1e+06u
X68 net3.t0 p_bais.t20 VDD.t31 VDD.t30 sky130_fd_pr__pfet_01v8 ad=0p pd=0u as=0p ps=0u w=6.66e+06u l=600000u
X69 a_16669_n8264.t0 VON.t5 net3_ota.t0 GND.t1 sky130_fd_pr__nfet_01v8 ad=0p pd=0u as=0p ps=0u w=1e+06u l=150000u
X70 net4.t3 Nbais.t15 GND.t11 GND.t10 sky130_fd_pr__nfet_01v8 ad=0p pd=0u as=0p ps=0u w=2e+06u l=600000u
X71 net2.t1 Nbais.t16 GND.t42 GND.t41 sky130_fd_pr__nfet_01v8 ad=0p pd=0u as=0p ps=0u w=2e+06u l=600000u
X72 VBP.t4 p_bais.t4 VDD sky130_fd_pr__res_iso_pw w=2.65e+06u l=3e+07u
X73 net4.t18 Nbais.t17 GND.t54 GND.t53 sky130_fd_pr__nfet_01v8 ad=0p pd=0u as=0p ps=0u w=2e+06u l=600000u
X74 net6.t9 VBP.t13 net7.t15 VDD.t28 sky130_fd_pr__pfet_01v8 ad=0p pd=0u as=0p ps=0u w=6.66e+06u l=600000u
X75 net5.t1 VBN.t16 net4.t6 GND.t23 sky130_fd_pr__nfet_01v8 ad=0p pd=0u as=0p ps=0u w=2e+06u l=600000u
X76 net4.t19 Nbais.t18 GND.t56 GND.t55 sky130_fd_pr__nfet_01v8 ad=0p pd=0u as=0p ps=0u w=2e+06u l=600000u
X77 net6.t10 VBP.t14 net7.t14 VDD.t29 sky130_fd_pr__pfet_01v8 ad=0p pd=0u as=0p ps=0u w=6.66e+06u l=600000u
X78 net7.t0 p_bais.t21 VDD.t33 VDD.t32 sky130_fd_pr__pfet_01v8 ad=0p pd=0u as=0p ps=0u w=6.66e+06u l=600000u
X79 net6.t2 VBP.t15 net7.t13 VDD.t8 sky130_fd_pr__pfet_01v8 ad=0p pd=0u as=0p ps=0u w=6.66e+06u l=600000u
X80 w_4269_n7633# Nbais.t2 VDD sky130_fd_pr__res_iso_pw w=2.65e+06u l=3e+07u
X81 net6.t3 VBP.t16 net7.t12 VDD.t9 sky130_fd_pr__pfet_01v8 ad=0p pd=0u as=0p ps=0u w=6.66e+06u l=600000u
X82 net5_ota.t2 VBN.t17 a_48058_n6837.t1 GND.t22 sky130_fd_pr__nfet_01v8 ad=0p pd=0u as=0p ps=0u w=1e+06u l=150000u
X83 net6.t4 VBP.t17 net7.t11 VDD.t10 sky130_fd_pr__pfet_01v8 ad=0p pd=0u as=0p ps=0u w=6.66e+06u l=600000u
X84 net6_ota.t2 VOP.t3 net5_ota.t0 VDD.t43 sky130_fd_pr__pfet_01v8 ad=0p pd=0u as=0p ps=0u w=4e+06u l=150000u
X85 net6.t11 VBP.t18 net7.t10 VDD.t34 sky130_fd_pr__pfet_01v8 ad=0p pd=0u as=0p ps=0u w=6.66e+06u l=600000u
R0 UBP UBP.t2 1701.44
R1 UBP.n2 UBP.t0 232.401
R2 UBP.n8 UBP.n7 188.161
R3 UBP.n18 UBP.t1 23.416
R4 UBP.n2 UBP.n1 15.764
R5 UBP.n6 UBP.n5 9.3
R6 UBP.n10 UBP.n9 9.3
R7 UBP.n4 UBP.n3 9.3
R8 UBP UBP.n26 3.438
R9 UBP.n26 UBP.n17 2.255
R10 UBP.n26 UBP.n25 2.254
R11 UBP.n4 UBP.n2 1.248
R12 UBP.n23 UBP.n21 1.137
R13 UBP.n19 UBP.n18 1.065
R14 UBP.n12 UBP.n11 1.037
R15 UBP.n15 UBP.n14 0.853
R16 UBP.n9 UBP.n8 0.705
R17 UBP.n25 UBP.n24 0.7
R18 UBP.n17 UBP.n16 0.7
R19 UBP.n11 UBP.n10 0.127
R20 UBP.n14 UBP.n13 0.041
R21 UBP.n10 UBP.n6 0.04
R22 UBP.n21 UBP.n20 0.019
R23 UBP.n15 UBP.n0 0.013
R24 UBP.n14 UBP.n12 0.009
R25 UBP.n6 UBP.n4 0.005
R26 UBP.n21 UBP.n19 0.005
R27 UBP.n16 UBP.n15 0.004
R28 UBP.n24 UBP.n23 0.004
R29 UBP.n23 UBP.n22 0.001
R30 VOP.n753 VOP.t3 735.159
R31 VOP.n753 VOP.t2 238.945
R32 VOP.n108 VOP.n107 13.176
R33 VOP.n521 VOP.n520 13.176
R34 VOP.n90 VOP.n89 9.3
R35 VOP.n234 VOP.n233 9.3
R36 VOP.n312 VOP.n311 9.3
R37 VOP.n458 VOP.n457 9.3
R38 VOP.n460 VOP.n459 9.3
R39 VOP.n208 VOP.n207 9.3
R40 VOP.n101 VOP.n100 9.3
R41 VOP.n88 VOP.n87 9.3
R42 VOP.n220 VOP.n219 9.3
R43 VOP.n231 VOP.n230 9.3
R44 VOP.n326 VOP.n325 9.3
R45 VOP.n289 VOP.n288 9.3
R46 VOP.n314 VOP.n313 9.3
R47 VOP.n472 VOP.n471 9.3
R48 VOP.n484 VOP.n483 9.3
R49 VOP.n519 VOP.n518 9.3
R50 VOP.n669 VOP.n668 9.3
R51 VOP.n710 VOP.n709 9.3
R52 VOP.n607 VOP.n606 8.043
R53 VOP.n734 VOP.n733 7.029
R54 VOP.n752 VOP.n751 6.129
R55 VOP.n300 VOP.n299 5.417
R56 VOP.n457 VOP.n456 5.081
R57 VOP.n233 VOP.n232 4.704
R58 VOP.n19 VOP.n16 4.703
R59 VOP.n279 VOP.n278 4.65
R60 VOP.n511 VOP.n510 4.65
R61 VOP.n689 VOP.n688 4.65
R62 VOP.n594 VOP.n593 4.5
R63 VOP.n20 VOP.n19 4.5
R64 VOP.n11 VOP.n10 4.5
R65 VOP.n392 VOP.n391 4.5
R66 VOP.n384 VOP.n383 4.5
R67 VOP.n32 VOP.n28 4.5
R68 VOP.n120 VOP.n119 4.5
R69 VOP.n110 VOP.n109 4.5
R70 VOP.n94 VOP.n93 4.5
R71 VOP.n81 VOP.n80 4.5
R72 VOP.n75 VOP.n74 4.5
R73 VOP.n216 VOP.n215 4.5
R74 VOP.n228 VOP.n227 4.5
R75 VOP.n246 VOP.n245 4.5
R76 VOP.n266 VOP.n265 4.5
R77 VOP.n259 VOP.n258 4.5
R78 VOP.n252 VOP.n251 4.5
R79 VOP.n274 VOP.n273 4.5
R80 VOP.n330 VOP.n329 4.5
R81 VOP.n292 VOP.n291 4.5
R82 VOP.n319 VOP.n318 4.5
R83 VOP.n307 VOP.n303 4.5
R84 VOP.n422 VOP.n412 4.5
R85 VOP.n400 VOP.n399 4.5
R86 VOP.n417 VOP.n414 4.5
R87 VOP.n464 VOP.n463 4.5
R88 VOP.n489 VOP.n488 4.5
R89 VOP.n476 VOP.n475 4.5
R90 VOP.n559 VOP.n558 4.5
R91 VOP.n523 VOP.n522 4.5
R92 VOP.n567 VOP.n566 4.5
R93 VOP.n582 VOP.n581 4.5
R94 VOP.n574 VOP.n573 4.5
R95 VOP.n40 VOP.n39 4.5
R96 VOP.n745 VOP.n744 4.5
R97 VOP.n726 VOP.n725 4.5
R98 VOP.n716 VOP.n715 4.5
R99 VOP.n704 VOP.n703 4.5
R100 VOP.n655 VOP.n654 4.5
R101 VOP.n665 VOP.n664 4.5
R102 VOP.n697 VOP.n696 4.5
R103 VOP.n691 VOP.n690 4.5
R104 VOP.n687 VOP.n686 4.5
R105 VOP.n683 VOP.n682 4.5
R106 VOP.n677 VOP.n676 4.5
R107 VOP.n615 VOP.n614 4.5
R108 VOP.n617 VOP.n607 4.473
R109 VOP.n606 VOP.t1 4.35
R110 VOP.n74 VOP.n71 4.328
R111 VOP.n581 VOP.n580 4.326
R112 VOP.n654 VOP.n651 4.141
R113 VOP.n725 VOP.n724 4.141
R114 VOP.n566 VOP.n565 3.951
R115 VOP.n303 VOP.n301 3.946
R116 VOP.n18 VOP.n17 3.764
R117 VOP.n664 VOP.n661 3.764
R118 VOP.n703 VOP.n701 3.764
R119 VOP.n391 VOP.n388 3.572
R120 VOP.n273 VOP.n272 3.569
R121 VOP.n250 VOP.n249 3.388
R122 VOP.n614 VOP.n611 3.388
R123 VOP.n676 VOP.n675 3.388
R124 VOP.n715 VOP.n714 3.388
R125 VOP.n744 VOP.n743 3.388
R126 VOP.n412 VOP.n409 3.197
R127 VOP.n258 VOP.n257 3.195
R128 VOP.n238 VOP.n237 3.033
R129 VOP.n336 VOP.n300 3.033
R130 VOP.n283 VOP.n282 3.033
R131 VOP.n512 VOP.n508 3.033
R132 VOP.n600 VOP.n599 3.033
R133 VOP.n390 VOP.n389 3.011
R134 VOP.n614 VOP.n613 3.011
R135 VOP.n676 VOP.n673 3.011
R136 VOP.n682 VOP.n680 3.011
R137 VOP.n709 VOP.n708 3.011
R138 VOP.n715 VOP.n713 3.011
R139 VOP.n744 VOP.n742 3.011
R140 VOP.n298 VOP.t0 2.856
R141 VOP.n245 VOP.n244 2.82
R142 VOP.n752 VOP.n605 2.755
R143 VOP.n28 VOP.n27 2.635
R144 VOP.n572 VOP.n571 2.635
R145 VOP.n664 VOP.n663 2.635
R146 VOP.n668 VOP.n667 2.635
R147 VOP.n696 VOP.n695 2.635
R148 VOP.n703 VOP.n702 2.635
R149 VOP.n245 VOP.n243 2.258
R150 VOP.n593 VOP.n592 2.258
R151 VOP.n654 VOP.n653 2.258
R152 VOP.n725 VOP.n723 2.258
R153 VOP VOP.n754 2.234
R154 VOP.n10 VOP.n9 1.882
R155 VOP.n383 VOP.n382 1.882
R156 VOP.n412 VOP.n411 1.882
R157 VOP.n299 VOP.n298 1.844
R158 VOP.n73 VOP.n72 1.505
R159 VOP.n258 VOP.n256 1.505
R160 VOP.n265 VOP.n264 1.505
R161 VOP.n564 VOP.n563 1.505
R162 VOP.n566 VOP.n564 1.505
R163 VOP.n573 VOP.n572 1.505
R164 VOP.n696 VOP.n694 1.505
R165 VOP.n595 VOP.n594 1.5
R166 VOP.n33 VOP.n32 1.5
R167 VOP.n21 VOP.n20 1.5
R168 VOP.n121 VOP.n120 1.5
R169 VOP.n111 VOP.n110 1.5
R170 VOP.n423 VOP.n422 1.5
R171 VOP.n401 VOP.n400 1.5
R172 VOP.n490 VOP.n489 1.5
R173 VOP.n524 VOP.n523 1.5
R174 VOP.n601 VOP.n600 1.5
R175 VOP.n583 VOP.n582 1.5
R176 VOP.n41 VOP.n40 1.5
R177 VOP.n754 VOP.n752 1.249
R178 VOP.n74 VOP.n73 1.129
R179 VOP.n80 VOP.n79 1.129
R180 VOP.n215 VOP.n214 1.129
R181 VOP.n264 VOP.n263 1.129
R182 VOP.n382 VOP.n381 1.129
R183 VOP.n391 VOP.n390 1.129
R184 VOP.n399 VOP.n398 1.129
R185 VOP.n475 VOP.n474 1.129
R186 VOP.n682 VOP.n681 1.129
R187 VOP.n746 VOP.n745 1.125
R188 VOP.n346 VOP.n336 1.042
R189 VOP.n127 VOP.n126 0.853
R190 VOP.n172 VOP.n171 0.853
R191 VOP.n347 VOP.n346 0.853
R192 VOP.n426 VOP.n425 0.853
R193 VOP.n526 VOP.n525 0.853
R194 VOP.n604 VOP.n603 0.853
R195 VOP.n227 VOP.n226 0.752
R196 VOP.n243 VOP.n242 0.752
R197 VOP.n251 VOP.n250 0.752
R198 VOP.n273 VOP.n271 0.752
R199 VOP.n291 VOP.n290 0.752
R200 VOP.n329 VOP.n328 0.752
R201 VOP.n411 VOP.n410 0.752
R202 VOP.n558 VOP.n557 0.752
R203 VOP.n581 VOP.n579 0.752
R204 VOP.n618 VOP.n617 0.75
R205 VOP.n43 VOP.n42 0.704
R206 VOP.n733 VOP.n732 0.445
R207 VOP.n613 VOP.n612 0.414
R208 VOP.n742 VOP.n741 0.414
R209 VOP.n653 VOP.n652 0.382
R210 VOP.n723 VOP.n722 0.382
R211 VOP.n39 VOP.n38 0.376
R212 VOP.n27 VOP.n26 0.376
R213 VOP.n19 VOP.n18 0.376
R214 VOP.n93 VOP.n92 0.376
R215 VOP.n109 VOP.n108 0.376
R216 VOP.n119 VOP.n118 0.376
R217 VOP.n318 VOP.n317 0.376
R218 VOP.n303 VOP.n302 0.376
R219 VOP.n414 VOP.n413 0.376
R220 VOP.n463 VOP.n462 0.376
R221 VOP.n488 VOP.n487 0.376
R222 VOP.n522 VOP.n521 0.376
R223 VOP.n592 VOP.n591 0.376
R224 VOP.n100 VOP.n99 0.189
R225 VOP.n207 VOP.n206 0.189
R226 VOP.n483 VOP.n482 0.189
R227 VOP.n518 VOP.n517 0.189
R228 VOP.n87 VOP.n86 0.177
R229 VOP.n219 VOP.n218 0.177
R230 VOP.n471 VOP.n470 0.177
R231 VOP.n510 VOP.n509 0.177
R232 VOP.n754 VOP.n753 0.171
R233 VOP.n317 VOP.n316 0.121
R234 VOP.n282 VOP.n281 0.121
R235 VOP.n617 VOP.n616 0.113
R236 VOP.n328 VOP.n327 0.109
R237 VOP.n627 VOP.n626 0.1
R238 VOP.n641 VOP.n640 0.1
R239 VOP.n663 VOP.n662 0.072
R240 VOP.n713 VOP.n712 0.072
R241 VOP.n609 VOP.n608 0.06
R242 VOP.n658 VOP.n657 0.06
R243 VOP.n670 VOP.n669 0.06
R244 VOP.n710 VOP.n707 0.06
R245 VOP.n720 VOP.n719 0.06
R246 VOP.n730 VOP.n729 0.06
R247 VOP.n739 VOP.n738 0.06
R248 VOP.n620 VOP.n619 0.06
R249 VOP.n624 VOP.n623 0.06
R250 VOP.n644 VOP.n643 0.06
R251 VOP.n648 VOP.n647 0.06
R252 VOP.n748 VOP.n747 0.06
R253 VOP.n630 VOP.n629 0.055
R254 VOP.n634 VOP.n633 0.055
R255 VOP.n638 VOP.n637 0.055
R256 VOP.n619 VOP.n618 0.052
R257 VOP.n747 VOP.n746 0.052
R258 VOP.n687 VOP.n685 0.05
R259 VOP.n697 VOP.n693 0.05
R260 VOP.n633 VOP.n632 0.05
R261 VOP.n637 VOP.n636 0.05
R262 VOP.n746 VOP.n648 0.05
R263 VOP.n684 VOP.n683 0.048
R264 VOP.n692 VOP.n691 0.048
R265 VOP.n631 VOP.n630 0.048
R266 VOP.n635 VOP.n634 0.048
R267 VOP.n104 VOP.n103 0.047
R268 VOP.n235 VOP.n234 0.047
R269 VOP.n505 VOP.n504 0.047
R270 VOP.n202 VOP.n201 0.047
R271 VOP.n238 VOP.n236 0.045
R272 VOP.n295 VOP.n294 0.045
R273 VOP.n297 VOP.n296 0.045
R274 VOP.n469 VOP.n468 0.045
R275 VOP.n157 VOP.n156 0.045
R276 VOP.n342 VOP.n341 0.045
R277 VOP.n83 VOP.n82 0.043
R278 VOP.n222 VOP.n221 0.043
R279 VOP.n261 VOP.n260 0.043
R280 VOP.n335 VOP.n334 0.043
R281 VOP.n333 VOP.n332 0.043
R282 VOP.n387 VOP.n386 0.043
R283 VOP.n417 VOP.n416 0.043
R284 VOP.n556 VOP.n555 0.043
R285 VOP.n60 VOP.n59 0.043
R286 VOP.n167 VOP.n166 0.043
R287 VOP.n377 VOP.n376 0.043
R288 VOP.n406 VOP.n405 0.043
R289 VOP.n543 VOP.n542 0.043
R290 VOP.n623 VOP.n622 0.043
R291 VOP.n647 VOP.n646 0.043
R292 VOP.n751 VOP.n750 0.043
R293 VOP.n336 VOP.n335 0.041
R294 VOP.n467 VOP.n466 0.041
R295 VOP.n346 VOP.n345 0.041
R296 VOP.n443 VOP.n442 0.041
R297 VOP.n621 VOP.n620 0.04
R298 VOP.n629 VOP.n628 0.04
R299 VOP.n645 VOP.n644 0.04
R300 VOP.n749 VOP.n748 0.04
R301 VOP.n96 VOP.n95 0.039
R302 VOP.n224 VOP.n223 0.039
R303 VOP.n252 VOP.n248 0.039
R304 VOP.n336 VOP.n297 0.039
R305 VOP.n67 VOP.n66 0.039
R306 VOP.n150 VOP.n149 0.039
R307 VOP.n171 VOP.n170 0.039
R308 VOP.n346 VOP.n205 0.039
R309 VOP.n364 VOP.n363 0.039
R310 VOP.n424 VOP.n423 0.039
R311 VOP.n639 VOP.n638 0.038
R312 VOP.n98 VOP.n97 0.037
R313 VOP.n247 VOP.n246 0.037
R314 VOP.n279 VOP.n277 0.037
R315 VOP.n284 VOP.n283 0.037
R316 VOP.n321 VOP.n320 0.037
R317 VOP.n400 VOP.n397 0.037
R318 VOP.n481 VOP.n480 0.037
R319 VOP.n514 VOP.n513 0.037
R320 VOP.n161 VOP.n160 0.037
R321 VOP.n194 VOP.n193 0.037
R322 VOP.n425 VOP.n401 0.037
R323 VOP.n499 VOP.n498 0.037
R324 VOP.n675 VOP.n674 0.036
R325 VOP.n701 VOP.n700 0.036
R326 VOP.n729 VOP.n728 0.036
R327 VOP.n738 VOP.n737 0.036
R328 VOP.n210 VOP.n209 0.035
R329 VOP.n312 VOP.n310 0.035
R330 VOP.n516 VOP.n515 0.035
R331 VOP.n122 VOP.n121 0.035
R332 VOP.n491 VOP.n490 0.035
R333 VOP.n42 VOP.n41 0.035
R334 VOP.n105 VOP.n104 0.034
R335 VOP.n266 VOP.n262 0.034
R336 VOP.n276 VOP.n275 0.034
R337 VOP.n69 VOP.n68 0.034
R338 VOP.n126 VOP.n125 0.034
R339 VOP.n159 VOP.n158 0.034
R340 VOP.n189 VOP.n188 0.034
R341 VOP.n204 VOP.n203 0.034
R342 VOP.n344 VOP.n343 0.034
R343 VOP.n408 VOP.n407 0.034
R344 VOP.n524 VOP.n502 0.034
R345 VOP.n501 VOP.n500 0.034
R346 VOP.n610 VOP.n609 0.033
R347 VOP.n719 VOP.n718 0.033
R348 VOP.n643 VOP.n642 0.033
R349 VOP.n309 VOP.n308 0.032
R350 VOP.n385 VOP.n384 0.032
R351 VOP.n506 VOP.n505 0.032
R352 VOP.n512 VOP.n511 0.032
R353 VOP.n111 VOP.n70 0.032
R354 VOP.n148 VOP.n147 0.032
R355 VOP.n169 VOP.n168 0.032
R356 VOP.n191 VOP.n190 0.032
R357 VOP.n192 VOP.n191 0.032
R358 VOP.n366 VOP.n365 0.032
R359 VOP.n367 VOP.n366 0.032
R360 VOP.n369 VOP.n368 0.032
R361 VOP.n445 VOP.n444 0.032
R362 VOP.n525 VOP.n494 0.032
R363 VOP.n44 VOP.n43 0.031
R364 VOP.n55 VOP.n54 0.031
R365 VOP.n129 VOP.n128 0.031
R366 VOP.n140 VOP.n139 0.031
R367 VOP.n174 VOP.n173 0.031
R368 VOP.n185 VOP.n184 0.031
R369 VOP.n349 VOP.n348 0.031
R370 VOP.n360 VOP.n359 0.031
R371 VOP.n428 VOP.n427 0.031
R372 VOP.n439 VOP.n438 0.031
R373 VOP.n528 VOP.n527 0.031
R374 VOP.n539 VOP.n538 0.031
R375 VOP.n659 VOP.n658 0.031
R376 VOP.n731 VOP.n730 0.031
R377 VOP.n740 VOP.n739 0.031
R378 VOP.n625 VOP.n624 0.031
R379 VOP.n626 VOP.n625 0.031
R380 VOP.n91 VOP.n90 0.03
R381 VOP.n110 VOP.n101 0.03
R382 VOP.n287 VOP.n286 0.03
R383 VOP.n523 VOP.n519 0.03
R384 VOP.n600 VOP.n598 0.03
R385 VOP.n58 VOP.n57 0.03
R386 VOP.n64 VOP.n63 0.03
R387 VOP.n124 VOP.n123 0.03
R388 VOP.n144 VOP.n143 0.03
R389 VOP.n154 VOP.n153 0.03
R390 VOP.n379 VOP.n378 0.03
R391 VOP.n403 VOP.n402 0.03
R392 VOP.n449 VOP.n448 0.03
R393 VOP.n496 VOP.n495 0.03
R394 VOP.n603 VOP.n601 0.03
R395 VOP.n40 VOP.n37 0.028
R396 VOP.n31 VOP.n30 0.028
R397 VOP.n292 VOP.n289 0.028
R398 VOP.n330 VOP.n326 0.028
R399 VOP.n324 VOP.n323 0.028
R400 VOP.n590 VOP.n589 0.028
R401 VOP.n25 VOP.n24 0.028
R402 VOP.n493 VOP.n492 0.028
R403 VOP.n545 VOP.n544 0.028
R404 VOP.n587 VOP.n586 0.028
R405 VOP.n657 VOP.n656 0.028
R406 VOP.n691 VOP.n689 0.028
R407 VOP.n642 VOP.n641 0.028
R408 VOP.n48 VOP.n47 0.027
R409 VOP.n51 VOP.n50 0.027
R410 VOP.n133 VOP.n132 0.027
R411 VOP.n136 VOP.n135 0.027
R412 VOP.n178 VOP.n177 0.027
R413 VOP.n181 VOP.n180 0.027
R414 VOP.n353 VOP.n352 0.027
R415 VOP.n356 VOP.n355 0.027
R416 VOP.n432 VOP.n431 0.027
R417 VOP.n435 VOP.n434 0.027
R418 VOP.n532 VOP.n531 0.027
R419 VOP.n535 VOP.n534 0.027
R420 VOP.n280 VOP.n279 0.026
R421 VOP.n315 VOP.n314 0.026
R422 VOP.n554 VOP.n553 0.026
R423 VOP.n541 VOP.n540 0.026
R424 VOP.n689 VOP.n687 0.026
R425 VOP.n721 VOP.n720 0.026
R426 VOP.n78 VOP.n77 0.024
R427 VOP.n85 VOP.n84 0.024
R428 VOP.n213 VOP.n212 0.024
R429 VOP.n240 VOP.n239 0.024
R430 VOP.n420 VOP.n419 0.024
R431 VOP.n478 VOP.n477 0.024
R432 VOP.n561 VOP.n560 0.024
R433 VOP.n574 VOP.n570 0.024
R434 VOP.n34 VOP.n33 0.024
R435 VOP.n62 VOP.n61 0.024
R436 VOP.n550 VOP.n549 0.024
R437 VOP.n665 VOP.n660 0.024
R438 VOP.n669 VOP.n666 0.024
R439 VOP.n704 VOP.n699 0.024
R440 VOP.n707 VOP.n706 0.024
R441 VOP.n640 VOP.n639 0.024
R442 VOP.n11 VOP.n8 0.022
R443 VOP.n8 VOP.n7 0.022
R444 VOP.n570 VOP.n569 0.022
R445 VOP.n3 VOP.n2 0.022
R446 VOP.n2 VOP.n1 0.022
R447 VOP.n549 VOP.n548 0.022
R448 VOP.n583 VOP.n552 0.022
R449 VOP.n596 VOP.n595 0.022
R450 VOP.n616 VOP.n615 0.021
R451 VOP.n671 VOP.n670 0.021
R452 VOP.n672 VOP.n671 0.021
R453 VOP.n678 VOP.n677 0.021
R454 VOP.n706 VOP.n705 0.021
R455 VOP.n711 VOP.n710 0.021
R456 VOP.n717 VOP.n716 0.021
R457 VOP.n745 VOP.n740 0.021
R458 VOP.n628 VOP.n627 0.021
R459 VOP.n30 VOP.n29 0.02
R460 VOP.n7 VOP.n6 0.02
R461 VOP.n88 VOP.n85 0.02
R462 VOP.n464 VOP.n461 0.02
R463 VOP.n569 VOP.n568 0.02
R464 VOP.n589 VOP.n588 0.02
R465 VOP.n24 VOP.n23 0.02
R466 VOP.n21 VOP.n5 0.02
R467 VOP.n1 VOP.n0 0.02
R468 VOP.n146 VOP.n145 0.02
R469 VOP.n441 VOP.n440 0.02
R470 VOP.n453 VOP.n452 0.02
R471 VOP.n548 VOP.n547 0.02
R472 VOP.n586 VOP.n585 0.02
R473 VOP.n601 VOP.n596 0.02
R474 VOP.n127 VOP.n55 0.019
R475 VOP.n128 VOP.n127 0.019
R476 VOP.n172 VOP.n140 0.019
R477 VOP.n173 VOP.n172 0.019
R478 VOP.n347 VOP.n185 0.019
R479 VOP.n348 VOP.n347 0.019
R480 VOP.n426 VOP.n360 0.019
R481 VOP.n427 VOP.n426 0.019
R482 VOP.n526 VOP.n439 0.019
R483 VOP.n527 VOP.n526 0.019
R484 VOP.n615 VOP.n610 0.019
R485 VOP.n655 VOP.n650 0.019
R486 VOP.n677 VOP.n672 0.019
R487 VOP.n683 VOP.n679 0.019
R488 VOP.n716 VOP.n711 0.019
R489 VOP.n727 VOP.n726 0.019
R490 VOP.n745 VOP.n731 0.019
R491 VOP.n736 VOP.n735 0.019
R492 VOP.n622 VOP.n621 0.019
R493 VOP.n646 VOP.n645 0.019
R494 VOP.n750 VOP.n749 0.019
R495 VOP.n15 VOP.n14 0.018
R496 VOP.n229 VOP.n228 0.018
R497 VOP.n323 VOP.n322 0.018
R498 VOP.n479 VOP.n478 0.018
R499 VOP.n578 VOP.n577 0.018
R500 VOP.n41 VOP.n34 0.018
R501 VOP.n113 VOP.n112 0.018
R502 VOP.n152 VOP.n151 0.018
R503 VOP.n339 VOP.n338 0.018
R504 VOP.n362 VOP.n361 0.018
R505 VOP.n447 VOP.n446 0.018
R506 VOP.n450 VOP.n449 0.018
R507 VOP.n494 VOP.n493 0.018
R508 VOP.n212 VOP.n211 0.017
R509 VOP.n254 VOP.n253 0.017
R510 VOP.n269 VOP.n268 0.017
R511 VOP.n286 VOP.n285 0.017
R512 VOP.n308 VOP.n307 0.017
R513 VOP.n305 VOP.n304 0.017
R514 VOP.n395 VOP.n394 0.017
R515 VOP.n485 VOP.n484 0.017
R516 VOP.n568 VOP.n567 0.017
R517 VOP.n23 VOP.n22 0.017
R518 VOP.n5 VOP.n4 0.017
R519 VOP.n63 VOP.n62 0.017
R520 VOP.n125 VOP.n124 0.017
R521 VOP.n115 VOP.n114 0.017
R522 VOP.n143 VOP.n142 0.017
R523 VOP.n153 VOP.n152 0.017
R524 VOP.n165 VOP.n164 0.017
R525 VOP.n164 VOP.n163 0.017
R526 VOP.n196 VOP.n195 0.017
R527 VOP.n197 VOP.n196 0.017
R528 VOP.n199 VOP.n198 0.017
R529 VOP.n370 VOP.n369 0.017
R530 VOP.n372 VOP.n371 0.017
R531 VOP.n375 VOP.n374 0.017
R532 VOP.n452 VOP.n451 0.017
R533 VOP.n455 VOP.n454 0.017
R534 VOP.n547 VOP.n546 0.017
R535 VOP.n552 VOP.n551 0.017
R536 VOP.n585 VOP.n584 0.017
R537 VOP.n604 VOP.n539 0.016
R538 VOP.n666 VOP.n665 0.016
R539 VOP.n698 VOP.n697 0.016
R540 VOP.n705 VOP.n704 0.016
R541 VOP.n255 VOP.n254 0.015
R542 VOP.n275 VOP.n274 0.015
R543 VOP.n394 VOP.n393 0.015
R544 VOP.n126 VOP.n111 0.015
R545 VOP.n188 VOP.n187 0.015
R546 VOP.n200 VOP.n199 0.015
R547 VOP.n340 VOP.n339 0.015
R548 VOP.n373 VOP.n372 0.015
R549 VOP.n374 VOP.n373 0.015
R550 VOP.n525 VOP.n524 0.015
R551 VOP.n546 VOP.n545 0.015
R552 VOP.n605 VOP.n604 0.014
R553 VOP.n656 VOP.n655 0.014
R554 VOP.n679 VOP.n678 0.014
R555 VOP.n699 VOP.n698 0.014
R556 VOP.n726 VOP.n721 0.014
R557 VOP.n14 VOP.n13 0.013
R558 VOP.n106 VOP.n105 0.013
R559 VOP.n120 VOP.n117 0.013
R560 VOP.n217 VOP.n216 0.013
R561 VOP.n220 VOP.n217 0.013
R562 VOP.n473 VOP.n472 0.013
R563 VOP.n476 VOP.n473 0.013
R564 VOP.n489 VOP.n485 0.013
R565 VOP.n507 VOP.n506 0.013
R566 VOP.n577 VOP.n576 0.013
R567 VOP.n57 VOP.n56 0.013
R568 VOP.n121 VOP.n115 0.013
R569 VOP.n145 VOP.n144 0.013
R570 VOP.n155 VOP.n154 0.013
R571 VOP.n163 VOP.n162 0.013
R572 VOP.n187 VOP.n186 0.013
R573 VOP.n198 VOP.n197 0.013
R574 VOP.n401 VOP.n379 0.013
R575 VOP.n446 VOP.n445 0.013
R576 VOP.n448 VOP.n447 0.013
R577 VOP.n490 VOP.n455 0.013
R578 VOP.n49 VOP.n48 0.012
R579 VOP.n50 VOP.n49 0.012
R580 VOP.n134 VOP.n133 0.012
R581 VOP.n135 VOP.n134 0.012
R582 VOP.n179 VOP.n178 0.012
R583 VOP.n180 VOP.n179 0.012
R584 VOP.n354 VOP.n353 0.012
R585 VOP.n355 VOP.n354 0.012
R586 VOP.n433 VOP.n432 0.012
R587 VOP.n434 VOP.n433 0.012
R588 VOP.n533 VOP.n532 0.012
R589 VOP.n534 VOP.n533 0.012
R590 VOP.n209 VOP.n208 0.011
R591 VOP.n211 VOP.n210 0.011
R592 VOP.n246 VOP.n241 0.011
R593 VOP.n285 VOP.n284 0.011
R594 VOP.n310 VOP.n309 0.011
R595 VOP.n515 VOP.n514 0.011
R596 VOP.n513 VOP.n512 0.011
R597 VOP.n594 VOP.n590 0.011
R598 VOP.n114 VOP.n113 0.011
R599 VOP.n142 VOP.n141 0.011
R600 VOP.n147 VOP.n146 0.011
R601 VOP.n170 VOP.n169 0.011
R602 VOP.n195 VOP.n194 0.011
R603 VOP.n205 VOP.n204 0.011
R604 VOP.n338 VOP.n337 0.011
R605 VOP.n368 VOP.n367 0.011
R606 VOP.n371 VOP.n370 0.011
R607 VOP.n404 VOP.n403 0.011
R608 VOP.n500 VOP.n499 0.011
R609 VOP.n498 VOP.n497 0.011
R610 VOP.n595 VOP.n587 0.011
R611 VOP.n46 VOP.n45 0.011
R612 VOP.n53 VOP.n52 0.011
R613 VOP.n131 VOP.n130 0.011
R614 VOP.n138 VOP.n137 0.011
R615 VOP.n176 VOP.n175 0.011
R616 VOP.n183 VOP.n182 0.011
R617 VOP.n351 VOP.n350 0.011
R618 VOP.n358 VOP.n357 0.011
R619 VOP.n430 VOP.n429 0.011
R620 VOP.n437 VOP.n436 0.011
R621 VOP.n530 VOP.n529 0.011
R622 VOP.n537 VOP.n536 0.011
R623 VOP.n32 VOP.n31 0.009
R624 VOP.n95 VOP.n94 0.009
R625 VOP.n97 VOP.n96 0.009
R626 VOP.n231 VOP.n229 0.009
R627 VOP.n270 VOP.n269 0.009
R628 VOP.n277 VOP.n276 0.009
R629 VOP.n322 VOP.n321 0.009
R630 VOP.n306 VOP.n305 0.009
R631 VOP.n384 VOP.n380 0.009
R632 VOP.n422 VOP.n421 0.009
R633 VOP.n461 VOP.n460 0.009
R634 VOP.n480 VOP.n479 0.009
R635 VOP.n484 VOP.n481 0.009
R636 VOP.n33 VOP.n25 0.009
R637 VOP.n22 VOP.n21 0.009
R638 VOP.n66 VOP.n65 0.009
R639 VOP.n68 VOP.n67 0.009
R640 VOP.n151 VOP.n150 0.009
R641 VOP.n190 VOP.n189 0.009
R642 VOP.n345 VOP.n344 0.009
R643 VOP.n363 VOP.n362 0.009
R644 VOP.n451 VOP.n450 0.009
R645 VOP.n454 VOP.n453 0.009
R646 VOP.n685 VOP.n684 0.009
R647 VOP.n693 VOP.n692 0.009
R648 VOP.n632 VOP.n631 0.009
R649 VOP.n636 VOP.n635 0.009
R650 VOP.n603 VOP.n602 0.008
R651 VOP.n77 VOP.n76 0.007
R652 VOP.n221 VOP.n220 0.007
R653 VOP.n248 VOP.n247 0.007
R654 VOP.n259 VOP.n255 0.007
R655 VOP.n267 VOP.n266 0.007
R656 VOP.n397 VOP.n396 0.007
R657 VOP.n562 VOP.n561 0.007
R658 VOP.n567 VOP.n562 0.007
R659 VOP.n65 VOP.n64 0.007
R660 VOP.n171 VOP.n161 0.007
R661 VOP.n425 VOP.n424 0.007
R662 VOP.n442 VOP.n441 0.007
R663 VOP.n584 VOP.n583 0.007
R664 VOP.n650 VOP.n649 0.007
R665 VOP.n660 VOP.n659 0.007
R666 VOP.n718 VOP.n717 0.007
R667 VOP.n728 VOP.n727 0.007
R668 VOP.n45 VOP.n44 0.006
R669 VOP.n47 VOP.n46 0.006
R670 VOP.n52 VOP.n51 0.006
R671 VOP.n54 VOP.n53 0.006
R672 VOP.n130 VOP.n129 0.006
R673 VOP.n132 VOP.n131 0.006
R674 VOP.n137 VOP.n136 0.006
R675 VOP.n139 VOP.n138 0.006
R676 VOP.n175 VOP.n174 0.006
R677 VOP.n177 VOP.n176 0.006
R678 VOP.n182 VOP.n181 0.006
R679 VOP.n184 VOP.n183 0.006
R680 VOP.n350 VOP.n349 0.006
R681 VOP.n352 VOP.n351 0.006
R682 VOP.n357 VOP.n356 0.006
R683 VOP.n359 VOP.n358 0.006
R684 VOP.n429 VOP.n428 0.006
R685 VOP.n431 VOP.n430 0.006
R686 VOP.n436 VOP.n435 0.006
R687 VOP.n438 VOP.n437 0.006
R688 VOP.n529 VOP.n528 0.006
R689 VOP.n531 VOP.n530 0.006
R690 VOP.n536 VOP.n535 0.006
R691 VOP.n538 VOP.n537 0.006
R692 VOP.n12 VOP.n11 0.005
R693 VOP.n76 VOP.n75 0.005
R694 VOP.n81 VOP.n78 0.005
R695 VOP.n216 VOP.n213 0.005
R696 VOP.n225 VOP.n224 0.005
R697 VOP.n262 VOP.n261 0.005
R698 VOP.n268 VOP.n267 0.005
R699 VOP.n283 VOP.n280 0.005
R700 VOP.n326 VOP.n324 0.005
R701 VOP.n386 VOP.n385 0.005
R702 VOP.n393 VOP.n392 0.005
R703 VOP.n400 VOP.n395 0.005
R704 VOP.n416 VOP.n415 0.005
R705 VOP.n466 VOP.n465 0.005
R706 VOP.n472 VOP.n469 0.005
R707 VOP.n477 VOP.n476 0.005
R708 VOP.n504 VOP.n503 0.005
R709 VOP.n4 VOP.n3 0.005
R710 VOP.n160 VOP.n159 0.005
R711 VOP.n166 VOP.n165 0.005
R712 VOP.n193 VOP.n192 0.005
R713 VOP.n376 VOP.n375 0.005
R714 VOP.n407 VOP.n406 0.005
R715 VOP.n405 VOP.n404 0.005
R716 VOP.n492 VOP.n491 0.005
R717 VOP.n497 VOP.n496 0.005
R718 VOP.n735 VOP.n734 0.005
R719 VOP.n737 VOP.n736 0.004
R720 VOP.n13 VOP.n12 0.003
R721 VOP.n84 VOP.n83 0.003
R722 VOP.n103 VOP.n102 0.003
R723 VOP.n223 VOP.n222 0.003
R724 VOP.n228 VOP.n225 0.003
R725 VOP.n234 VOP.n231 0.003
R726 VOP.n236 VOP.n235 0.003
R727 VOP.n239 VOP.n238 0.003
R728 VOP.n241 VOP.n240 0.003
R729 VOP.n253 VOP.n252 0.003
R730 VOP.n274 VOP.n270 0.003
R731 VOP.n289 VOP.n287 0.003
R732 VOP.n334 VOP.n333 0.003
R733 VOP.n319 VOP.n315 0.003
R734 VOP.n392 VOP.n387 0.003
R735 VOP.n421 VOP.n420 0.003
R736 VOP.n419 VOP.n418 0.003
R737 VOP.n519 VOP.n516 0.003
R738 VOP.n559 VOP.n556 0.003
R739 VOP.n560 VOP.n559 0.003
R740 VOP.n575 VOP.n574 0.003
R741 VOP.n576 VOP.n575 0.003
R742 VOP.n582 VOP.n578 0.003
R743 VOP.n61 VOP.n60 0.003
R744 VOP.n70 VOP.n69 0.003
R745 VOP.n123 VOP.n122 0.003