* NGSPICE file created from DSM.ext - technology: sky130A

* Black-box entry subcircuit for sky130_fd_sc_hd__tapvpwrvgnd_1 abstract view
.subckt sky130_fd_sc_hd__tapvpwrvgnd_1 VGND VPWR
.ends

* Black-box entry subcircuit for sky130_fd_sc_hd__decap_6 abstract view
.subckt sky130_fd_sc_hd__decap_6 VGND VNB VPB VPWR
X0 VPWR VGND VPWR VPB sky130_fd_pr__pfet_01v8_hvt w=870000u l=1.97e+06u
X1 VGND VPWR VGND VNB sky130_fd_pr__nfet_01v8 w=550000u l=1.97e+06u
.ends

* Black-box entry subcircuit for sky130_fd_sc_hd__fill_2 abstract view
.subckt sky130_fd_sc_hd__fill_2 VGND VNB VPB VPWR
.ends

* Black-box entry subcircuit for sky130_ef_sc_hd__decap_12 abstract view
.subckt sky130_ef_sc_hd__decap_12 VGND VNB VPB VPWR
X0 VPWR VGND VPWR VPB sky130_fd_pr__pfet_01v8_hvt w=870000u l=4.73e+06u
X1 VGND VPWR VGND VNB sky130_fd_pr__nfet_01v8 w=550000u l=4.73e+06u
.ends

* Black-box entry subcircuit for sky130_fd_sc_hd__fill_1 abstract view
.subckt sky130_fd_sc_hd__fill_1 VGND VNB VPB VPWR
.ends

* Black-box entry subcircuit for sky130_fd_sc_hd__decap_8 abstract view
.subckt sky130_fd_sc_hd__decap_8 VGND VNB VPB VPWR
X0 VPWR VGND VPWR VPB sky130_fd_pr__pfet_01v8_hvt w=870000u l=2.89e+06u
X1 VGND VPWR VGND VNB sky130_fd_pr__nfet_01v8 w=550000u l=2.89e+06u
.ends

* Black-box entry subcircuit for sky130_fd_sc_hd__nor2_1 abstract view
.subckt sky130_fd_sc_hd__nor2_1 A B VGND VNB VPB VPWR Y
X0 a_109_297# A VPWR VPB sky130_fd_pr__pfet_01v8_hvt w=1e+06u l=150000u
X1 Y A VGND VNB sky130_fd_pr__nfet_01v8 w=650000u l=150000u
X2 VGND B Y VNB sky130_fd_pr__nfet_01v8 w=650000u l=150000u
X3 Y B a_109_297# VPB sky130_fd_pr__pfet_01v8_hvt w=1e+06u l=150000u
.ends

* Black-box entry subcircuit for sky130_fd_sc_hd__or2_1 abstract view
.subckt sky130_fd_sc_hd__or2_1 A B VGND VNB VPB VPWR X
X0 a_150_297# A VPWR VPB sky130_fd_pr__pfet_01v8_hvt w=420000u l=150000u
X1 VGND a_68_297# X VNB sky130_fd_pr__nfet_01v8 w=650000u l=150000u
X2 VGND B a_68_297# VNB sky130_fd_pr__nfet_01v8 w=420000u l=150000u
X3 a_68_297# A VGND VNB sky130_fd_pr__nfet_01v8 w=420000u l=150000u
X4 a_68_297# B a_150_297# VPB sky130_fd_pr__pfet_01v8_hvt w=420000u l=150000u
X5 VPWR a_68_297# X VPB sky130_fd_pr__pfet_01v8_hvt w=1e+06u l=150000u
.ends

* Black-box entry subcircuit for sky130_fd_sc_hd__decap_3 abstract view
.subckt sky130_fd_sc_hd__decap_3 VGND VNB VPB VPWR
X0 VPWR VGND VPWR VPB sky130_fd_pr__pfet_01v8_hvt w=870000u l=590000u
X1 VGND VPWR VGND VNB sky130_fd_pr__nfet_01v8 w=550000u l=590000u
.ends

* Black-box entry subcircuit for sky130_fd_sc_hd__decap_4 abstract view
.subckt sky130_fd_sc_hd__decap_4 VGND VNB VPB VPWR
X0 VPWR VGND VPWR VPB sky130_fd_pr__pfet_01v8_hvt w=870000u l=1.05e+06u
X1 VGND VPWR VGND VNB sky130_fd_pr__nfet_01v8 w=550000u l=1.05e+06u
.ends

* Black-box entry subcircuit for sky130_fd_sc_hd__inv_2 abstract view
.subckt sky130_fd_sc_hd__inv_2 A VGND VNB VPB VPWR Y
X0 Y A VGND VNB sky130_fd_pr__nfet_01v8 w=650000u l=150000u
X1 VPWR A Y VPB sky130_fd_pr__pfet_01v8_hvt w=1e+06u l=150000u
X2 VGND A Y VNB sky130_fd_pr__nfet_01v8 w=650000u l=150000u
X3 Y A VPWR VPB sky130_fd_pr__pfet_01v8_hvt w=1e+06u l=150000u
.ends

* Black-box entry subcircuit for sky130_fd_sc_hd__dfrtp_1 abstract view
.subckt sky130_fd_sc_hd__dfrtp_1 CLK D RESET_B VGND VNB VPB VPWR Q
X0 a_1270_413# a_1283_21# VPWR VPB sky130_fd_pr__pfet_01v8_hvt w=420000u l=150000u
X1 VPWR a_543_47# a_761_289# VPB sky130_fd_pr__pfet_01v8_hvt w=840000u l=150000u
X2 VGND a_543_47# a_761_289# VNB sky130_fd_pr__nfet_01v8 w=640000u l=150000u
X3 VGND D a_448_47# VNB sky130_fd_pr__nfet_01v8 w=420000u l=150000u
X4 a_1108_47# a_193_47# a_1270_413# VPB sky130_fd_pr__pfet_01v8_hvt w=420000u l=150000u
X5 VGND a_1283_21# Q VNB sky130_fd_pr__nfet_01v8 w=650000u l=150000u
X6 a_1217_47# a_1283_21# VGND VNB sky130_fd_pr__nfet_01v8 w=420000u l=150000u
X7 a_448_47# a_27_47# a_543_47# VNB sky130_fd_pr__nfet_01v8 w=360000u l=150000u
X8 a_448_47# a_193_47# a_543_47# VPB sky130_fd_pr__pfet_01v8_hvt w=420000u l=150000u
X9 a_543_47# a_193_47# a_639_47# VNB sky130_fd_pr__nfet_01v8 w=360000u l=150000u
X10 a_1108_47# a_27_47# a_1217_47# VNB sky130_fd_pr__nfet_01v8 w=360000u l=150000u
X11 a_1462_47# a_1108_47# a_1283_21# VNB sky130_fd_pr__nfet_01v8 w=420000u l=150000u
X12 a_543_47# a_27_47# a_651_413# VPB sky130_fd_pr__pfet_01v8_hvt w=420000u l=150000u
X13 a_805_47# RESET_B VGND VNB sky130_fd_pr__nfet_01v8 w=420000u l=150000u
X14 a_761_289# a_193_47# a_1108_47# VNB sky130_fd_pr__nfet_01v8 w=360000u l=150000u
X15 VPWR RESET_B a_651_413# VPB sky130_fd_pr__pfet_01v8_hvt w=420000u l=150000u
X16 VGND a_27_47# a_193_47# VNB sky130_fd_pr__nfet_01v8 w=420000u l=150000u
X17 a_27_47# CLK VGND VNB sky130_fd_pr__nfet_01v8 w=420000u l=150000u
X18 a_27_47# CLK VPWR VPB sky130_fd_pr__pfet_01v8_hvt w=640000u l=150000u
X19 VPWR a_1283_21# Q VPB sky130_fd_pr__pfet_01v8_hvt w=1e+06u l=150000u
X20 VPWR a_27_47# a_193_47# VPB sky130_fd_pr__pfet_01v8_hvt w=640000u l=150000u
X21 a_1283_21# a_1108_47# VPWR VPB sky130_fd_pr__pfet_01v8_hvt w=420000u l=150000u
X22 VGND RESET_B a_1462_47# VNB sky130_fd_pr__nfet_01v8 w=420000u l=150000u
X23 VPWR D a_448_47# VPB sky130_fd_pr__pfet_01v8_hvt w=420000u l=150000u
X24 a_651_413# a_761_289# VPWR VPB sky130_fd_pr__pfet_01v8_hvt w=420000u l=150000u
X25 a_761_289# a_27_47# a_1108_47# VPB sky130_fd_pr__pfet_01v8_hvt w=420000u l=150000u
X26 VPWR RESET_B a_1283_21# VPB sky130_fd_pr__pfet_01v8_hvt w=420000u l=150000u
X27 a_639_47# a_761_289# a_805_47# VNB sky130_fd_pr__nfet_01v8 w=420000u l=150000u
.ends

* Black-box entry subcircuit for sky130_fd_sc_hd__nand2_1 abstract view
.subckt sky130_fd_sc_hd__nand2_1 A B VGND VNB VPB VPWR Y
X0 Y A VPWR VPB sky130_fd_pr__pfet_01v8_hvt w=1e+06u l=150000u
X1 VPWR B Y VPB sky130_fd_pr__pfet_01v8_hvt w=1e+06u l=150000u
X2 VGND B a_113_47# VNB sky130_fd_pr__nfet_01v8 w=650000u l=150000u
X3 a_113_47# A Y VNB sky130_fd_pr__nfet_01v8 w=650000u l=150000u
.ends

* Black-box entry subcircuit for sky130_fd_sc_hd__buf_2 abstract view
.subckt sky130_fd_sc_hd__buf_2 A VGND VNB VPB VPWR X
X0 X a_27_47# VGND VNB sky130_fd_pr__nfet_01v8 w=650000u l=150000u
X1 a_27_47# A VPWR VPB sky130_fd_pr__pfet_01v8_hvt w=640000u l=150000u
X2 VGND a_27_47# X VNB sky130_fd_pr__nfet_01v8 w=650000u l=150000u
X3 X a_27_47# VPWR VPB sky130_fd_pr__pfet_01v8_hvt w=1e+06u l=150000u
X4 VPWR a_27_47# X VPB sky130_fd_pr__pfet_01v8_hvt w=1e+06u l=150000u
X5 a_27_47# A VGND VNB sky130_fd_pr__nfet_01v8 w=420000u l=150000u
.ends

* Black-box entry subcircuit for sky130_fd_sc_hd__or3_2 abstract view
.subckt sky130_fd_sc_hd__or3_2 A B C VGND VNB VPB VPWR X
X0 VPWR a_30_53# X VPB sky130_fd_pr__pfet_01v8_hvt w=1e+06u l=150000u
X1 a_112_297# B a_184_297# VPB sky130_fd_pr__pfet_01v8_hvt w=420000u l=150000u
X2 a_184_297# A VPWR VPB sky130_fd_pr__pfet_01v8_hvt w=420000u l=150000u
X3 X a_30_53# VPWR VPB sky130_fd_pr__pfet_01v8_hvt w=1e+06u l=150000u
X4 a_30_53# A VGND VNB sky130_fd_pr__nfet_01v8 w=420000u l=150000u
X5 a_30_53# C a_112_297# VPB sky130_fd_pr__pfet_01v8_hvt w=420000u l=150000u
X6 a_30_53# C VGND VNB sky130_fd_pr__nfet_01v8 w=420000u l=150000u
X7 X a_30_53# VGND VNB sky130_fd_pr__nfet_01v8 w=650000u l=150000u
X8 VGND B a_30_53# VNB sky130_fd_pr__nfet_01v8 w=420000u l=150000u
X9 VGND a_30_53# X VNB sky130_fd_pr__nfet_01v8 w=650000u l=150000u
.ends

* Black-box entry subcircuit for sky130_fd_sc_hd__clkbuf_1 abstract view
.subckt sky130_fd_sc_hd__clkbuf_1 A VGND VNB VPB VPWR X
X0 VGND A a_75_212# VNB sky130_fd_pr__nfet_01v8 w=520000u l=150000u
X1 X a_75_212# VPWR VPB sky130_fd_pr__pfet_01v8_hvt w=790000u l=150000u
X2 X a_75_212# VGND VNB sky130_fd_pr__nfet_01v8 w=520000u l=150000u
X3 VPWR A a_75_212# VPB sky130_fd_pr__pfet_01v8_hvt w=790000u l=150000u
.ends

* Black-box entry subcircuit for sky130_fd_sc_hd__and2_1 abstract view
.subckt sky130_fd_sc_hd__and2_1 A B VGND VNB VPB VPWR X
X0 VGND a_59_75# X VNB sky130_fd_pr__nfet_01v8 w=650000u l=150000u
X1 VPWR A a_59_75# VPB sky130_fd_pr__pfet_01v8_hvt w=420000u l=150000u
X2 a_59_75# A a_145_75# VNB sky130_fd_pr__nfet_01v8 w=420000u l=150000u
X3 a_59_75# B VPWR VPB sky130_fd_pr__pfet_01v8_hvt w=420000u l=150000u
X4 a_145_75# B VGND VNB sky130_fd_pr__nfet_01v8 w=420000u l=150000u
X5 VPWR a_59_75# X VPB sky130_fd_pr__pfet_01v8_hvt w=1e+06u l=150000u
.ends

* Black-box entry subcircuit for sky130_fd_sc_hd__a31oi_4 abstract view
.subckt sky130_fd_sc_hd__a31oi_4 A1 A2 A3 B1 VGND VNB VPB VPWR Y
X0 Y B1 a_27_297# VPB sky130_fd_pr__pfet_01v8_hvt w=1e+06u l=150000u
X1 Y A1 a_445_47# VNB sky130_fd_pr__nfet_01v8 w=650000u l=150000u
X2 a_27_47# A2 a_445_47# VNB sky130_fd_pr__nfet_01v8 w=650000u l=150000u
X3 Y B1 VGND VNB sky130_fd_pr__nfet_01v8 w=650000u l=150000u
X4 a_27_47# A2 a_445_47# VNB sky130_fd_pr__nfet_01v8 w=650000u l=150000u
X5 a_27_297# B1 Y VPB sky130_fd_pr__pfet_01v8_hvt w=1e+06u l=150000u
X6 Y A1 a_445_47# VNB sky130_fd_pr__nfet_01v8 w=650000u l=150000u
X7 VPWR A2 a_27_297# VPB sky130_fd_pr__pfet_01v8_hvt w=1e+06u l=150000u
X8 VPWR A1 a_27_297# VPB sky130_fd_pr__pfet_01v8_hvt w=1e+06u l=150000u
X9 VPWR A2 a_27_297# VPB sky130_fd_pr__pfet_01v8_hvt w=1e+06u l=150000u
X10 VGND A3 a_27_47# VNB sky130_fd_pr__nfet_01v8 w=650000u l=150000u
X11 a_27_297# A2 VPWR VPB sky130_fd_pr__pfet_01v8_hvt w=1e+06u l=150000u
X12 a_445_47# A2 a_27_47# VNB sky130_fd_pr__nfet_01v8 w=650000u l=150000u
X13 VGND B1 Y VNB sky130_fd_pr__nfet_01v8 w=650000u l=150000u
X14 VPWR A1 a_27_297# VPB sky130_fd_pr__pfet_01v8_hvt w=1e+06u l=150000u
X15 a_27_297# A1 VPWR VPB sky130_fd_pr__pfet_01v8_hvt w=1e+06u l=150000u
X16 a_27_47# A3 VGND VNB sky130_fd_pr__nfet_01v8 w=650000u l=150000u
X17 a_27_297# A1 VPWR VPB sky130_fd_pr__pfet_01v8_hvt w=1e+06u l=150000u
X18 VGND A3 a_27_47# VNB sky130_fd_pr__nfet_01v8 w=650000u l=150000u
X19 a_27_297# A3 VPWR VPB sky130_fd_pr__pfet_01v8_hvt w=1e+06u l=150000u
X20 a_27_47# A3 VGND VNB sky130_fd_pr__nfet_01v8 w=650000u l=150000u
X21 Y B1 VGND VNB sky130_fd_pr__nfet_01v8 w=650000u l=150000u
X22 a_27_297# A2 VPWR VPB sky130_fd_pr__pfet_01v8_hvt w=1e+06u l=150000u
X23 a_27_297# A3 VPWR VPB sky130_fd_pr__pfet_01v8_hvt w=1e+06u l=150000u
X24 a_27_297# B1 Y VPB sky130_fd_pr__pfet_01v8_hvt w=1e+06u l=150000u
X25 VPWR A3 a_27_297# VPB sky130_fd_pr__pfet_01v8_hvt w=1e+06u l=150000u
X26 a_445_47# A1 Y VNB sky130_fd_pr__nfet_01v8 w=650000u l=150000u
X27 a_445_47# A2 a_27_47# VNB sky130_fd_pr__nfet_01v8 w=650000u l=150000u
X28 VGND B1 Y VNB sky130_fd_pr__nfet_01v8 w=650000u l=150000u
X29 VPWR A3 a_27_297# VPB sky130_fd_pr__pfet_01v8_hvt w=1e+06u l=150000u
X30 Y B1 a_27_297# VPB sky130_fd_pr__pfet_01v8_hvt w=1e+06u l=150000u
X31 a_445_47# A1 Y VNB sky130_fd_pr__nfet_01v8 w=650000u l=150000u
.ends

* Black-box entry subcircuit for sky130_fd_sc_hd__dfrtp_4 abstract view
.subckt sky130_fd_sc_hd__dfrtp_4 CLK D RESET_B VGND VNB VPB VPWR Q
X0 a_1270_413# a_1283_21# VPWR VPB sky130_fd_pr__pfet_01v8_hvt w=420000u l=150000u
X1 VPWR a_543_47# a_761_289# VPB sky130_fd_pr__pfet_01v8_hvt w=840000u l=150000u
X2 VGND a_543_47# a_761_289# VNB sky130_fd_pr__nfet_01v8 w=640000u l=150000u
X3 VGND D a_448_47# VNB sky130_fd_pr__nfet_01v8 w=420000u l=150000u
X4 a_1108_47# a_193_47# a_1270_413# VPB sky130_fd_pr__pfet_01v8_hvt w=420000u l=150000u
X5 VPWR a_1283_21# Q VPB sky130_fd_pr__pfet_01v8_hvt w=1e+06u l=150000u
X6 a_1217_47# a_1283_21# VGND VNB sky130_fd_pr__nfet_01v8 w=420000u l=150000u
X7 a_448_47# a_27_47# a_543_47# VNB sky130_fd_pr__nfet_01v8 w=360000u l=150000u
X8 Q a_1283_21# VGND VNB sky130_fd_pr__nfet_01v8 w=650000u l=150000u
X9 a_448_47# a_193_47# a_543_47# VPB sky130_fd_pr__pfet_01v8_hvt w=420000u l=150000u
X10 a_543_47# a_193_47# a_639_47# VNB sky130_fd_pr__nfet_01v8 w=360000u l=150000u
X11 a_1108_47# a_27_47# a_1217_47# VNB sky130_fd_pr__nfet_01v8 w=360000u l=150000u
X12 a_1462_47# a_1108_47# a_1283_21# VNB sky130_fd_pr__nfet_01v8 w=420000u l=150000u
X13 VPWR a_1283_21# Q VPB sky130_fd_pr__pfet_01v8_hvt w=1e+06u l=150000u
X14 VGND a_1283_21# Q VNB sky130_fd_pr__nfet_01v8 w=650000u l=150000u
X15 a_543_47# a_27_47# a_651_413# VPB sky130_fd_pr__pfet_01v8_hvt w=420000u l=150000u
X16 a_805_47# RESET_B VGND VNB sky130_fd_pr__nfet_01v8 w=420000u l=150000u
X17 Q a_1283_21# VPWR VPB sky130_fd_pr__pfet_01v8_hvt w=1e+06u l=150000u
X18 Q a_1283_21# VPWR VPB sky130_fd_pr__pfet_01v8_hvt w=1e+06u l=150000u
X19 a_761_289# a_193_47# a_1108_47# VNB sky130_fd_pr__nfet_01v8 w=360000u l=150000u
X20 VPWR RESET_B a_651_413# VPB sky130_fd_pr__pfet_01v8_hvt w=420000u l=150000u
X21 VGND a_27_47# a_193_47# VNB sky130_fd_pr__nfet_01v8 w=420000u l=150000u
X22 a_27_47# CLK VGND VNB sky130_fd_pr__nfet_01v8 w=420000u l=150000u
X23 VGND a_1283_21# Q VNB sky130_fd_pr__nfet_01v8 w=650000u l=150000u
X24 a_27_47# CLK VPWR VPB sky130_fd_pr__pfet_01v8_hvt w=640000u l=150000u
X25 VPWR a_27_47# a_193_47# VPB sky130_fd_pr__pfet_01v8_hvt w=640000u l=150000u
X26 a_1283_21# a_1108_47# VPWR VPB sky130_fd_pr__pfet_01v8_hvt w=420000u l=150000u
X27 VGND RESET_B a_1462_47# VNB sky130_fd_pr__nfet_01v8 w=420000u l=150000u
X28 VPWR D a_448_47# VPB sky130_fd_pr__pfet_01v8_hvt w=420000u l=150000u
X29 Q a_1283_21# VGND VNB sky130_fd_pr__nfet_01v8 w=650000u l=150000u
X30 a_651_413# a_761_289# VPWR VPB sky130_fd_pr__pfet_01v8_hvt w=420000u l=150000u
X31 a_761_289# a_27_47# a_1108_47# VPB sky130_fd_pr__pfet_01v8_hvt w=420000u l=150000u
X32 VPWR RESET_B a_1283_21# VPB sky130_fd_pr__pfet_01v8_hvt w=420000u l=150000u
X33 a_639_47# a_761_289# a_805_47# VNB sky130_fd_pr__nfet_01v8 w=420000u l=150000u
.ends

* Black-box entry subcircuit for sky130_fd_sc_hd__o211ai_2 abstract view
.subckt sky130_fd_sc_hd__o211ai_2 A1 A2 B1 C1 VGND VNB VPB VPWR Y
X0 Y A2 a_487_297# VPB sky130_fd_pr__pfet_01v8_hvt w=1e+06u l=150000u
X1 a_27_47# C1 Y VNB sky130_fd_pr__nfet_01v8 w=650000u l=150000u
X2 a_487_297# A2 Y VPB sky130_fd_pr__pfet_01v8_hvt w=1e+06u l=150000u
X3 a_487_297# A1 VPWR VPB sky130_fd_pr__pfet_01v8_hvt w=1e+06u l=150000u
X4 VPWR C1 Y VPB sky130_fd_pr__pfet_01v8_hvt w=1e+06u l=150000u
X5 Y C1 a_27_47# VNB sky130_fd_pr__nfet_01v8 w=650000u l=150000u
X6 Y C1 VPWR VPB sky130_fd_pr__pfet_01v8_hvt w=1e+06u l=150000u
X7 VPWR B1 Y VPB sky130_fd_pr__pfet_01v8_hvt w=1e+06u l=150000u
X8 VGND A2 a_286_47# VNB sky130_fd_pr__nfet_01v8 w=650000u l=150000u
X9 a_27_47# B1 a_286_47# VNB sky130_fd_pr__nfet_01v8 w=650000u l=150000u
X10 a_286_47# B1 a_27_47# VNB sky130_fd_pr__nfet_01v8 w=650000u l=150000u
X11 a_286_47# A1 VGND VNB sky130_fd_pr__nfet_01v8 w=650000u l=150000u
X12 Y B1 VPWR VPB sky130_fd_pr__pfet_01v8_hvt w=1e+06u l=150000u
X13 VPWR A1 a_487_297# VPB sky130_fd_pr__pfet_01v8_hvt w=1e+06u l=150000u
X14 a_286_47# A2 VGND VNB sky130_fd_pr__nfet_01v8 w=650000u l=150000u
X15 VGND A1 a_286_47# VNB sky130_fd_pr__nfet_01v8 w=650000u l=150000u
.ends

* Black-box entry subcircuit for sky130_fd_sc_hd__xnor2_1 abstract view
.subckt sky130_fd_sc_hd__xnor2_1 A B VGND VNB VPB VPWR Y
X0 VPWR A a_377_297# VPB sky130_fd_pr__pfet_01v8_hvt w=1e+06u l=150000u
X1 a_377_297# B Y VPB sky130_fd_pr__pfet_01v8_hvt w=1e+06u l=150000u
X2 Y a_47_47# VPWR VPB sky130_fd_pr__pfet_01v8_hvt w=1e+06u l=150000u
X3 a_129_47# A VGND VNB sky130_fd_pr__nfet_01v8 w=650000u l=150000u
X4 VGND B a_285_47# VNB sky130_fd_pr__nfet_01v8 w=650000u l=150000u
X5 a_47_47# B a_129_47# VNB sky130_fd_pr__nfet_01v8 w=650000u l=150000u
X6 VPWR B a_47_47# VPB sky130_fd_pr__pfet_01v8_hvt w=1e+06u l=150000u
X7 a_47_47# A VPWR VPB sky130_fd_pr__pfet_01v8_hvt w=1e+06u l=150000u
X8 VGND A a_285_47# VNB sky130_fd_pr__nfet_01v8 w=650000u l=150000u
X9 a_285_47# a_47_47# Y VNB sky130_fd_pr__nfet_01v8 w=650000u l=150000u
.ends

* Black-box entry subcircuit for sky130_fd_sc_hd__nand3_4 abstract view
.subckt sky130_fd_sc_hd__nand3_4 A B C VGND VNB VPB VPWR Y
X0 a_445_47# A Y VNB sky130_fd_pr__nfet_01v8 w=650000u l=150000u
X1 a_27_47# B a_445_47# VNB sky130_fd_pr__nfet_01v8 w=650000u l=150000u
X2 a_27_47# B a_445_47# VNB sky130_fd_pr__nfet_01v8 w=650000u l=150000u
X3 a_445_47# A Y VNB sky130_fd_pr__nfet_01v8 w=650000u l=150000u
X4 Y B VPWR VPB sky130_fd_pr__pfet_01v8_hvt w=1e+06u l=150000u
X5 Y B VPWR VPB sky130_fd_pr__pfet_01v8_hvt w=1e+06u l=150000u
X6 VGND C a_27_47# VNB sky130_fd_pr__nfet_01v8 w=650000u l=150000u
X7 VPWR B Y VPB sky130_fd_pr__pfet_01v8_hvt w=1e+06u l=150000u
X8 a_445_47# B a_27_47# VNB sky130_fd_pr__nfet_01v8 w=650000u l=150000u
X9 Y A VPWR VPB sky130_fd_pr__pfet_01v8_hvt w=1e+06u l=150000u
X10 VPWR A Y VPB sky130_fd_pr__pfet_01v8_hvt w=1e+06u l=150000u
X11 a_27_47# C VGND VNB sky130_fd_pr__nfet_01v8 w=650000u l=150000u
X12 Y A VPWR VPB sky130_fd_pr__pfet_01v8_hvt w=1e+06u l=150000u
X13 VGND C a_27_47# VNB sky130_fd_pr__nfet_01v8 w=650000u l=150000u
X14 VPWR C Y VPB sky130_fd_pr__pfet_01v8_hvt w=1e+06u l=150000u
X15 a_27_47# C VGND VNB sky130_fd_pr__nfet_01v8 w=650000u l=150000u
X16 VPWR A Y VPB sky130_fd_pr__pfet_01v8_hvt w=1e+06u l=150000u
X17 VPWR B Y VPB sky130_fd_pr__pfet_01v8_hvt w=1e+06u l=150000u
X18 VPWR C Y VPB sky130_fd_pr__pfet_01v8_hvt w=1e+06u l=150000u
X19 Y C VPWR VPB sky130_fd_pr__pfet_01v8_hvt w=1e+06u l=150000u
X20 Y A a_445_47# VNB sky130_fd_pr__nfet_01v8 w=650000u l=150000u
X21 a_445_47# B a_27_47# VNB sky130_fd_pr__nfet_01v8 w=650000u l=150000u
X22 Y C VPWR VPB sky130_fd_pr__pfet_01v8_hvt w=1e+06u l=150000u
X23 Y A a_445_47# VNB sky130_fd_pr__nfet_01v8 w=650000u l=150000u
.ends

* Black-box entry subcircuit for sky130_fd_sc_hd__a21o_1 abstract view
.subckt sky130_fd_sc_hd__a21o_1 A1 A2 B1 VGND VNB VPB VPWR X
X0 a_384_47# A2 VGND VNB sky130_fd_pr__nfet_01v8 w=650000u l=150000u
X1 X a_81_21# VPWR VPB sky130_fd_pr__pfet_01v8_hvt w=1e+06u l=150000u
X2 a_81_21# B1 a_299_297# VPB sky130_fd_pr__pfet_01v8_hvt w=1e+06u l=150000u
X3 VGND B1 a_81_21# VNB sky130_fd_pr__nfet_01v8 w=650000u l=150000u
X4 a_299_297# A1 VPWR VPB sky130_fd_pr__pfet_01v8_hvt w=1e+06u l=150000u
X5 VPWR A2 a_299_297# VPB sky130_fd_pr__pfet_01v8_hvt w=1e+06u l=150000u
X6 X a_81_21# VGND VNB sky130_fd_pr__nfet_01v8 w=650000u l=150000u
X7 a_81_21# A1 a_384_47# VNB sky130_fd_pr__nfet_01v8 w=650000u l=150000u
.ends

* Black-box entry subcircuit for sky130_fd_sc_hd__dfrtp_2 abstract view
.subckt sky130_fd_sc_hd__dfrtp_2 CLK D RESET_B VGND VNB VPB VPWR Q
X0 a_1270_413# a_1283_21# VPWR VPB sky130_fd_pr__pfet_01v8_hvt w=420000u l=150000u
X1 Q a_1283_21# VGND VNB sky130_fd_pr__nfet_01v8 w=650000u l=150000u
X2 VPWR a_543_47# a_761_289# VPB sky130_fd_pr__pfet_01v8_hvt w=840000u l=150000u
X3 VGND a_543_47# a_761_289# VNB sky130_fd_pr__nfet_01v8 w=640000u l=150000u
X4 VGND D a_448_47# VNB sky130_fd_pr__nfet_01v8 w=420000u l=150000u
X5 a_1108_47# a_193_47# a_1270_413# VPB sky130_fd_pr__pfet_01v8_hvt w=420000u l=150000u
X6 VGND a_1283_21# Q VNB sky130_fd_pr__nfet_01v8 w=650000u l=150000u
X7 a_1217_47# a_1283_21# VGND VNB sky130_fd_pr__nfet_01v8 w=420000u l=150000u
X8 a_448_47# a_27_47# a_543_47# VNB sky130_fd_pr__nfet_01v8 w=360000u l=150000u
X9 a_448_47# a_193_47# a_543_47# VPB sky130_fd_pr__pfet_01v8_hvt w=420000u l=150000u
X10 a_543_47# a_193_47# a_639_47# VNB sky130_fd_pr__nfet_01v8 w=360000u l=150000u
X11 a_1108_47# a_27_47# a_1217_47# VNB sky130_fd_pr__nfet_01v8 w=360000u l=150000u
X12 a_1462_47# a_1108_47# a_1283_21# VNB sky130_fd_pr__nfet_01v8 w=420000u l=150000u
X13 a_543_47# a_27_47# a_651_413# VPB sky130_fd_pr__pfet_01v8_hvt w=420000u l=150000u
X14 a_805_47# RESET_B VGND VNB sky130_fd_pr__nfet_01v8 w=420000u l=150000u
X15 Q a_1283_21# VPWR VPB sky130_fd_pr__pfet_01v8_hvt w=1e+06u l=150000u
X16 a_761_289# a_193_47# a_1108_47# VNB sky130_fd_pr__nfet_01v8 w=360000u l=150000u
X17 VPWR RESET_B a_651_413# VPB sky130_fd_pr__pfet_01v8_hvt w=420000u l=150000u
X18 VGND a_27_47# a_193_47# VNB sky130_fd_pr__nfet_01v8 w=420000u l=150000u
X19 a_27_47# CLK VGND VNB sky130_fd_pr__nfet_01v8 w=420000u l=150000u
X20 a_27_47# CLK VPWR VPB sky130_fd_pr__pfet_01v8_hvt w=640000u l=150000u
X21 VPWR a_1283_21# Q VPB sky130_fd_pr__pfet_01v8_hvt w=1e+06u l=150000u
X22 VPWR a_27_47# a_193_47# VPB sky130_fd_pr__pfet_01v8_hvt w=640000u l=150000u
X23 a_1283_21# a_1108_47# VPWR VPB sky130_fd_pr__pfet_01v8_hvt w=420000u l=150000u
X24 VGND RESET_B a_1462_47# VNB sky130_fd_pr__nfet_01v8 w=420000u l=150000u
X25 VPWR D a_448_47# VPB sky130_fd_pr__pfet_01v8_hvt w=420000u l=150000u
X26 a_651_413# a_761_289# VPWR VPB sky130_fd_pr__pfet_01v8_hvt w=420000u l=150000u
X27 a_761_289# a_27_47# a_1108_47# VPB sky130_fd_pr__pfet_01v8_hvt w=420000u l=150000u
X28 VPWR RESET_B a_1283_21# VPB sky130_fd_pr__pfet_01v8_hvt w=420000u l=150000u
X29 a_639_47# a_761_289# a_805_47# VNB sky130_fd_pr__nfet_01v8 w=420000u l=150000u
.ends

* Black-box entry subcircuit for sky130_fd_sc_hd__xor2_1 abstract view
.subckt sky130_fd_sc_hd__xor2_1 A B VGND VNB VPB VPWR X
X0 a_35_297# A VGND VNB sky130_fd_pr__nfet_01v8 w=650000u l=150000u
X1 VGND B a_35_297# VNB sky130_fd_pr__nfet_01v8 w=650000u l=150000u
X2 X a_35_297# VGND VNB sky130_fd_pr__nfet_01v8 w=650000u l=150000u
X3 a_285_297# B VPWR VPB sky130_fd_pr__pfet_01v8_hvt w=1e+06u l=150000u
X4 VPWR A a_285_297# VPB sky130_fd_pr__pfet_01v8_hvt w=1e+06u l=150000u
X5 a_35_297# B a_117_297# VPB sky130_fd_pr__pfet_01v8_hvt w=1e+06u l=150000u
X6 a_117_297# A VPWR VPB sky130_fd_pr__pfet_01v8_hvt w=1e+06u l=150000u
X7 a_285_47# B X VNB sky130_fd_pr__nfet_01v8 w=650000u l=150000u
X8 a_285_297# a_35_297# X VPB sky130_fd_pr__pfet_01v8_hvt w=1e+06u l=150000u
X9 VGND A a_285_47# VNB sky130_fd_pr__nfet_01v8 w=650000u l=150000u
.ends

* Black-box entry subcircuit for sky130_fd_sc_hd__o31a_2 abstract view
.subckt sky130_fd_sc_hd__o31a_2 A1 A2 A3 B1 VGND VNB VPB VPWR X
X0 a_430_297# A3 a_108_21# VPB sky130_fd_pr__pfet_01v8_hvt w=1e+06u l=150000u
X1 X a_108_21# VGND VNB sky130_fd_pr__nfet_01v8 w=650000u l=150000u
X2 a_108_21# B1 VPWR VPB sky130_fd_pr__pfet_01v8_hvt w=1e+06u l=150000u
X3 VGND A1 a_346_47# VNB sky130_fd_pr__nfet_01v8 w=650000u l=150000u
X4 a_346_47# B1 a_108_21# VNB sky130_fd_pr__nfet_01v8 w=650000u l=150000u
X5 VGND A3 a_346_47# VNB sky130_fd_pr__nfet_01v8 w=650000u l=150000u
X6 VGND a_108_21# X VNB sky130_fd_pr__nfet_01v8 w=650000u l=150000u
X7 VPWR a_108_21# X VPB sky130_fd_pr__pfet_01v8_hvt w=1e+06u l=150000u
X8 VPWR A1 a_346_297# VPB sky130_fd_pr__pfet_01v8_hvt w=1e+06u l=150000u
X9 X a_108_21# VPWR VPB sky130_fd_pr__pfet_01v8_hvt w=1e+06u l=150000u
X10 a_346_47# A2 VGND VNB sky130_fd_pr__nfet_01v8 w=650000u l=150000u
X11 a_346_297# A2 a_430_297# VPB sky130_fd_pr__pfet_01v8_hvt w=1e+06u l=150000u
.ends

* Black-box entry subcircuit for sky130_fd_sc_hd__dlymetal6s2s_1 abstract view
.subckt sky130_fd_sc_hd__dlymetal6s2s_1 A VGND VNB VPB VPWR X
X0 a_381_47# X VPWR VPB sky130_fd_pr__pfet_01v8_hvt w=420000u l=150000u
X1 a_381_47# X VGND VNB sky130_fd_pr__nfet_01v8 w=420000u l=150000u
X2 a_664_47# a_558_47# VPWR VPB sky130_fd_pr__pfet_01v8_hvt w=420000u l=150000u
X3 a_62_47# A VGND VNB sky130_fd_pr__nfet_01v8 w=420000u l=150000u
X4 VPWR a_664_47# a_841_47# VPB sky130_fd_pr__pfet_01v8_hvt w=1e+06u l=150000u
X5 VGND a_381_47# a_558_47# VNB sky130_fd_pr__nfet_01v8 w=650000u l=150000u
X6 VGND a_62_47# X VNB sky130_fd_pr__nfet_01v8 w=650000u l=150000u
X7 VPWR a_62_47# X VPB sky130_fd_pr__pfet_01v8_hvt w=1e+06u l=150000u
X8 a_664_47# a_558_47# VGND VNB sky130_fd_pr__nfet_01v8 w=420000u l=150000u
X9 a_62_47# A VPWR VPB sky130_fd_pr__pfet_01v8_hvt w=420000u l=150000u
X10 VPWR a_381_47# a_558_47# VPB sky130_fd_pr__pfet_01v8_hvt w=1e+06u l=150000u
X11 VGND a_664_47# a_841_47# VNB sky130_fd_pr__nfet_01v8 w=650000u l=150000u
.ends

* Black-box entry subcircuit for sky130_fd_sc_hd__o31a_1 abstract view
.subckt sky130_fd_sc_hd__o31a_1 A1 A2 A3 B1 VGND VNB VPB VPWR X
X0 a_253_47# A2 VGND VNB sky130_fd_pr__nfet_01v8 w=650000u l=150000u
X1 VPWR A1 a_253_297# VPB sky130_fd_pr__pfet_01v8_hvt w=1e+06u l=150000u
X2 X a_103_199# VGND VNB sky130_fd_pr__nfet_01v8 w=650000u l=150000u
X3 X a_103_199# VPWR VPB sky130_fd_pr__pfet_01v8_hvt w=1e+06u l=150000u
X4 VGND A1 a_253_47# VNB sky130_fd_pr__nfet_01v8 w=650000u l=150000u
X5 a_103_199# B1 VPWR VPB sky130_fd_pr__pfet_01v8_hvt w=1e+06u l=150000u
X6 a_253_47# B1 a_103_199# VNB sky130_fd_pr__nfet_01v8 w=650000u l=150000u
X7 VGND A3 a_253_47# VNB sky130_fd_pr__nfet_01v8 w=650000u l=150000u
X8 a_253_297# A2 a_337_297# VPB sky130_fd_pr__pfet_01v8_hvt w=1e+06u l=150000u
X9 a_337_297# A3 a_103_199# VPB sky130_fd_pr__pfet_01v8_hvt w=1e+06u l=150000u
.ends

* Black-box entry subcircuit for sky130_fd_sc_hd__clkbuf_2 abstract view
.subckt sky130_fd_sc_hd__clkbuf_2 A VGND VNB VPB VPWR X
X0 a_27_47# A VPWR VPB sky130_fd_pr__pfet_01v8_hvt w=1e+06u l=150000u
X1 a_27_47# A VGND VNB sky130_fd_pr__nfet_01v8 w=420000u l=150000u
X2 X a_27_47# VPWR VPB sky130_fd_pr__pfet_01v8_hvt w=1e+06u l=150000u
X3 VPWR a_27_47# X VPB sky130_fd_pr__pfet_01v8_hvt w=1e+06u l=150000u
X4 X a_27_47# VGND VNB sky130_fd_pr__nfet_01v8 w=420000u l=150000u
X5 VGND a_27_47# X VNB sky130_fd_pr__nfet_01v8 w=420000u l=150000u
.ends

* Black-box entry subcircuit for sky130_fd_sc_hd__o311a_1 abstract view
.subckt sky130_fd_sc_hd__o311a_1 A1 A2 A3 B1 C1 VGND VNB VPB VPWR X
X0 a_266_47# B1 a_585_47# VNB sky130_fd_pr__nfet_01v8 w=650000u l=150000u
X1 VGND A1 a_266_47# VNB sky130_fd_pr__nfet_01v8 w=650000u l=150000u
X2 VPWR C1 a_81_21# VPB sky130_fd_pr__pfet_01v8_hvt w=1e+06u l=150000u
X3 a_266_47# A2 VGND VNB sky130_fd_pr__nfet_01v8 w=650000u l=150000u
X4 X a_81_21# VPWR VPB sky130_fd_pr__pfet_01v8_hvt w=1e+06u l=150000u
X5 VGND A3 a_266_47# VNB sky130_fd_pr__nfet_01v8 w=650000u l=150000u
X6 a_266_297# A2 a_368_297# VPB sky130_fd_pr__pfet_01v8_hvt w=1e+06u l=150000u
X7 a_81_21# B1 VPWR VPB sky130_fd_pr__pfet_01v8_hvt w=1e+06u l=150000u
X8 a_585_47# C1 a_81_21# VNB sky130_fd_pr__nfet_01v8 w=650000u l=150000u
X9 a_368_297# A3 a_81_21# VPB sky130_fd_pr__pfet_01v8_hvt w=1e+06u l=150000u
X10 VPWR A1 a_266_297# VPB sky130_fd_pr__pfet_01v8_hvt w=1e+06u l=150000u
X11 X a_81_21# VGND VNB sky130_fd_pr__nfet_01v8 w=650000u l=150000u
.ends

* Black-box entry subcircuit for sky130_fd_sc_hd__a211oi_2 abstract view
.subckt sky130_fd_sc_hd__a211oi_2 A1 A2 B1 C1 VGND VNB VPB VPWR Y
X0 a_292_297# B1 a_37_297# VPB sky130_fd_pr__pfet_01v8_hvt w=1e+06u l=150000u
X1 VGND C1 Y VNB sky130_fd_pr__nfet_01v8 w=650000u l=150000u
X2 a_37_297# B1 a_292_297# VPB sky130_fd_pr__pfet_01v8_hvt w=1e+06u l=150000u
X3 VPWR A2 a_292_297# VPB sky130_fd_pr__pfet_01v8_hvt w=1e+06u l=150000u
X4 VGND A2 a_485_47# VNB sky130_fd_pr__nfet_01v8 w=650000u l=150000u
X5 a_485_47# A1 Y VNB sky130_fd_pr__nfet_01v8 w=650000u l=150000u
X6 Y A1 a_485_47# VNB sky130_fd_pr__nfet_01v8 w=650000u l=150000u
X7 a_485_47# A2 VGND VNB sky130_fd_pr__nfet_01v8 w=650000u l=150000u
X8 Y C1 VGND VNB sky130_fd_pr__nfet_01v8 w=650000u l=150000u
X9 VGND B1 Y VNB sky130_fd_pr__nfet_01v8 w=650000u l=150000u
X10 VPWR A1 a_292_297# VPB sky130_fd_pr__pfet_01v8_hvt w=1e+06u l=150000u
X11 a_292_297# A2 VPWR VPB sky130_fd_pr__pfet_01v8_hvt w=1e+06u l=150000u
X12 Y C1 a_37_297# VPB sky130_fd_pr__pfet_01v8_hvt w=1e+06u l=150000u
X13 a_37_297# C1 Y VPB sky130_fd_pr__pfet_01v8_hvt w=1e+06u l=150000u
X14 Y B1 VGND VNB sky130_fd_pr__nfet_01v8 w=650000u l=150000u
X15 a_292_297# A1 VPWR VPB sky130_fd_pr__pfet_01v8_hvt w=1e+06u l=150000u
.ends

* Black-box entry subcircuit for sky130_fd_sc_hd__or2b_1 abstract view
.subckt sky130_fd_sc_hd__or2b_1 A B_N VGND VNB VPB VPWR X
X0 a_219_297# A VGND VNB sky130_fd_pr__nfet_01v8 w=420000u l=150000u
X1 a_27_53# B_N VGND VNB sky130_fd_pr__nfet_01v8 w=420000u l=150000u
X2 VGND a_27_53# a_219_297# VNB sky130_fd_pr__nfet_01v8 w=420000u l=150000u
X3 VGND a_219_297# X VNB sky130_fd_pr__nfet_01v8 w=650000u l=150000u
X4 a_219_297# a_27_53# a_301_297# VPB sky130_fd_pr__pfet_01v8_hvt w=420000u l=150000u
X5 a_301_297# A VPWR VPB sky130_fd_pr__pfet_01v8_hvt w=420000u l=150000u
X6 VPWR B_N a_27_53# VPB sky130_fd_pr__pfet_01v8_hvt w=420000u l=150000u
X7 VPWR a_219_297# X VPB sky130_fd_pr__pfet_01v8_hvt w=1e+06u l=150000u
.ends

* Black-box entry subcircuit for sky130_fd_sc_hd__o211a_1 abstract view
.subckt sky130_fd_sc_hd__o211a_1 A1 A2 B1 C1 VGND VNB VPB VPWR X
X0 VPWR C1 a_79_21# VPB sky130_fd_pr__pfet_01v8_hvt w=1e+06u l=150000u
X1 a_215_47# A1 VGND VNB sky130_fd_pr__nfet_01v8 w=650000u l=150000u
X2 a_215_47# B1 a_510_47# VNB sky130_fd_pr__nfet_01v8 w=650000u l=150000u
X3 a_297_297# A2 a_79_21# VPB sky130_fd_pr__pfet_01v8_hvt w=1e+06u l=150000u
X4 VPWR A1 a_297_297# VPB sky130_fd_pr__pfet_01v8_hvt w=1e+06u l=150000u
X5 VGND A2 a_215_47# VNB sky130_fd_pr__nfet_01v8 w=650000u l=150000u
X6 X a_79_21# VGND VNB sky130_fd_pr__nfet_01v8 w=650000u l=150000u
X7 X a_79_21# VPWR VPB sky130_fd_pr__pfet_01v8_hvt w=1e+06u l=150000u
X8 a_510_47# C1 a_79_21# VNB sky130_fd_pr__nfet_01v8 w=650000u l=150000u
X9 a_79_21# B1 VPWR VPB sky130_fd_pr__pfet_01v8_hvt w=1e+06u l=150000u
.ends

* Black-box entry subcircuit for sky130_fd_sc_hd__o21ai_1 abstract view
.subckt sky130_fd_sc_hd__o21ai_1 A1 A2 B1 VGND VNB VPB VPWR Y
X0 a_109_297# A2 Y VPB sky130_fd_pr__pfet_01v8_hvt w=1e+06u l=150000u
X1 Y B1 VPWR VPB sky130_fd_pr__pfet_01v8_hvt w=700000u l=150000u
X2 a_27_47# A1 VGND VNB sky130_fd_pr__nfet_01v8 w=650000u l=150000u
X3 a_27_47# B1 Y VNB sky130_fd_pr__nfet_01v8 w=650000u l=150000u
X4 VPWR A1 a_109_297# VPB sky130_fd_pr__pfet_01v8_hvt w=1e+06u l=150000u
X5 VGND A2 a_27_47# VNB sky130_fd_pr__nfet_01v8 w=650000u l=150000u
.ends

* Black-box entry subcircuit for sky130_fd_sc_hd__o21bai_2 abstract view
.subckt sky130_fd_sc_hd__o21bai_2 A1 A2 B1_N VGND VNB VPB VPWR Y
X0 Y a_28_297# VPWR VPB sky130_fd_pr__pfet_01v8_hvt w=1e+06u l=150000u
X1 VGND B1_N a_28_297# VNB sky130_fd_pr__nfet_01v8 w=420000u l=150000u
X2 a_28_297# B1_N VPWR VPB sky130_fd_pr__pfet_01v8_hvt w=420000u l=150000u
X3 a_397_297# A2 Y VPB sky130_fd_pr__pfet_01v8_hvt w=1e+06u l=150000u
X4 a_397_297# A1 VPWR VPB sky130_fd_pr__pfet_01v8_hvt w=1e+06u l=150000u
X5 a_229_47# A2 VGND VNB sky130_fd_pr__nfet_01v8 w=650000u l=150000u
X6 Y A2 a_397_297# VPB sky130_fd_pr__pfet_01v8_hvt w=1e+06u l=150000u
X7 Y a_28_297# a_229_47# VNB sky130_fd_pr__nfet_01v8 w=650000u l=150000u
X8 VGND A1 a_229_47# VNB sky130_fd_pr__nfet_01v8 w=650000u l=150000u
X9 VPWR A1 a_397_297# VPB sky130_fd_pr__pfet_01v8_hvt w=1e+06u l=150000u