*SPEF "ieee 1481-1999"
*DESIGN "DSM"
*DATE "11:11:11 Fri 11 11, 1111"
*VENDOR "OpenRCX"
*PROGRAM "Parallel Extraction"
*VERSION "1.0"
*DESIGN_FLOW "NAME_SCOPE LOCAL" "PIN_CAP NONE"
*DIVIDER /
*DELIMITER :
*BUS_DELIMITER []
*T_UNIT 1 NS
*C_UNIT 1 PF
*R_UNIT 1 OHM
*L_UNIT 1 HENRY

*NAME_MAP
*1 Clk
*2 In_Data[0]
*3 In_Data[10]
*4 In_Data[11]
*5 In_Data[12]
*6 In_Data[13]
*7 In_Data[14]
*8 In_Data[15]
*9 In_Data[16]
*10 In_Data[17]
*11 In_Data[18]
*12 In_Data[19]
*13 In_Data[1]
*14 In_Data[20]
*15 In_Data[21]
*16 In_Data[22]
*17 In_Data[23]
*18 In_Data[2]
*19 In_Data[3]
*20 In_Data[4]
*21 In_Data[5]
*22 In_Data[6]
*23 In_Data[7]
*24 In_Data[8]
*25 In_Data[9]
*26 Out_Data[0]
*27 Out_Data[1]
*28 Out_Data[2]
*29 Out_Data[3]
*30 Out_Data[4]
*33 reset
*34 DCout3
*35 _000_
*36 _001_
*37 _002_
*38 _003_
*39 _004_
*40 _005_
*41 _006_
*42 _007_
*43 _008_
*44 _009_
*45 _010_
*46 _011_
*47 _012_
*48 _013_
*49 _014_
*50 _015_
*51 _016_
*52 _017_
*53 _018_
*54 _019_
*55 _020_
*56 _021_
*57 _022_
*58 _023_
*59 _024_
*60 _025_
*61 _026_
*62 _027_
*63 _028_
*64 _029_
*65 _030_
*66 _031_
*67 _032_
*68 _033_
*69 _034_
*70 _035_
*71 _036_
*72 _037_
*73 _038_
*74 _039_
*75 _040_
*76 _041_
*77 _042_
*78 _043_
*79 _044_
*80 _045_
*81 _046_
*82 _047_
*83 _048_
*84 _049_
*85 _050_
*86 _051_
*87 _052_
*88 _053_
*89 _054_
*90 _055_
*91 _056_
*92 _057_
*93 _058_
*94 _059_
*95 _060_
*96 _061_
*97 _062_
*98 _063_
*99 _064_
*100 _065_
*101 _066_
*102 _067_
*103 _068_
*104 _069_
*105 _070_
*106 _071_
*107 _072_
*108 _073_
*109 _074_
*110 _075_
*111 _076_
*112 _077_
*113 _078_
*114 _079_
*115 _080_
*116 _081_
*117 _082_
*118 _083_
*119 _084_
*120 _085_
*121 _086_
*122 _087_
*123 _088_
*124 _089_
*125 _090_
*126 _091_
*127 _092_
*128 _093_
*129 _094_
*130 _095_
*131 _096_
*132 _097_
*133 _098_
*134 _099_
*135 _100_
*136 _101_
*137 _102_
*138 _103_
*139 _104_
*140 _105_
*141 _106_
*142 _107_
*143 _108_
*144 d1\.Out_Data\[0\]
*145 d1\.Out_Data\[1\]
*146 d1\.Out_Data\[2\]
*147 d1\.Out_Data\[3\]
*148 d1\.Out_Data\[4\]
*149 d1\.Out_Data\[5\]
*150 d1\.Out_Data\[6\]
*151 d1\.Sum\[0\]
*152 d1\.Sum\[1\]
*153 d1\.Sum\[2\]
*154 d1\.Sum\[3\]
*155 d1\.Sum\[4\]
*156 d1\.Sum\[5\]
*157 d1\.Sum\[6\]
*158 d2\.Out_Data\[0\]
*159 d2\.Out_Data\[1\]
*160 d2\.Out_Data\[2\]
*161 d2\.Out_Data\[3\]
*162 d2\.Out_Data\[4\]
*163 d2\.Out_Data\[5\]
*164 d2\.Out_Data\[6\]
*165 d2\.Sum\[0\]
*166 d2\.Sum\[1\]
*167 d2\.Sum\[2\]
*168 d2\.Sum\[3\]
*169 d2\.Sum\[4\]
*170 d2\.Sum\[5\]
*171 d2\.Sum\[6\]
*172 d3\.Cout
*173 d3\.Out_Data\[0\]
*174 d3\.Out_Data\[1\]
*175 d3\.Out_Data\[2\]
*176 d3\.Out_Data\[3\]
*177 d3\.Out_Data\[4\]
*178 d3\.Out_Data\[5\]
*179 d3\.Out_Data\[6\]
*180 d3\.Sum\[0\]
*181 d3\.Sum\[1\]
*182 d3\.Sum\[2\]
*183 d3\.Sum\[3\]
*184 d3\.Sum\[4\]
*185 d3\.Sum\[5\]
*186 d3\.Sum\[6\]
*187 net1
*188 net10
*189 net11
*190 net12
*191 net13
*192 net14
*193 net15
*194 net16
*195 net17
*196 net18
*197 net19
*198 net2
*199 net20
*200 net3
*201 net4
*202 net5
*203 net6
*204 net7
*205 net8
*206 net9
*207 u4\.Out_Data\[0\]
*208 u4\.Out_Data\[1\]
*209 u4\.Out_Data\[2\]
*210 u5\.Data3\[0\]
*211 u5\.Data3\[1\]
*212 u5\.Data3\[2\]
*213 FILLER_0_109
*214 FILLER_0_113
*215 FILLER_0_125
*216 FILLER_0_133
*217 FILLER_0_139
*218 FILLER_0_141
*219 FILLER_0_15
*220 FILLER_0_153
*221 FILLER_0_165
*222 FILLER_0_169
*223 FILLER_0_175
*224 FILLER_0_187
*225 FILLER_0_195
*226 FILLER_0_197
*227 FILLER_0_209
*228 FILLER_0_221
*229 FILLER_0_225
*230 FILLER_0_239
*231 FILLER_0_27
*232 FILLER_0_29
*233 FILLER_0_3
*234 FILLER_0_34
*235 FILLER_0_46
*236 FILLER_0_54
*237 FILLER_0_57
*238 FILLER_0_69
*239 FILLER_0_81
*240 FILLER_0_85
*241 FILLER_0_97
*242 FILLER_10_102
*243 FILLER_10_114
*244 FILLER_10_126
*245 FILLER_10_138
*246 FILLER_10_141
*247 FILLER_10_15
*248 FILLER_10_153
*249 FILLER_10_165
*250 FILLER_10_177
*251 FILLER_10_189
*252 FILLER_10_194
*253 FILLER_10_197
*254 FILLER_10_203
*255 FILLER_10_224
*256 FILLER_10_236
*257 FILLER_10_240
*258 FILLER_10_27
*259 FILLER_10_29
*260 FILLER_10_3
*261 FILLER_10_52
*262 FILLER_10_64
*263 FILLER_10_76
*264 FILLER_10_85
*265 FILLER_10_90
*266 FILLER_11_105
*267 FILLER_11_111
*268 FILLER_11_113
*269 FILLER_11_125
*270 FILLER_11_137
*271 FILLER_11_149
*272 FILLER_11_15
*273 FILLER_11_161
*274 FILLER_11_167
*275 FILLER_11_169
*276 FILLER_11_181
*277 FILLER_11_198
*278 FILLER_11_209
*279 FILLER_11_221
*280 FILLER_11_225
*281 FILLER_11_237
*282 FILLER_11_27
*283 FILLER_11_3
*284 FILLER_11_34
*285 FILLER_11_46
*286 FILLER_11_54
*287 FILLER_11_57
*288 FILLER_11_69
*289 FILLER_11_81
*290 FILLER_11_93
*291 FILLER_12_109
*292 FILLER_12_121
*293 FILLER_12_132
*294 FILLER_12_141
*295 FILLER_12_146
*296 FILLER_12_15
*297 FILLER_12_158
*298 FILLER_12_170
*299 FILLER_12_182
*300 FILLER_12_194
*301 FILLER_12_197
*302 FILLER_12_213
*303 FILLER_12_225
*304 FILLER_12_237
*305 FILLER_12_27
*306 FILLER_12_29
*307 FILLER_12_3
*308 FILLER_12_37
*309 FILLER_12_49
*310 FILLER_12_61
*311 FILLER_12_73
*312 FILLER_12_81
*313 FILLER_12_85
*314 FILLER_12_97
*315 FILLER_13_103
*316 FILLER_13_111
*317 FILLER_13_113
*318 FILLER_13_125
*319 FILLER_13_146
*320 FILLER_13_15
*321 FILLER_13_158
*322 FILLER_13_166
*323 FILLER_13_169
*324 FILLER_13_181
*325 FILLER_13_193
*326 FILLER_13_205
*327 FILLER_13_212
*328 FILLER_13_225
*329 FILLER_13_237
*330 FILLER_13_27
*331 FILLER_13_3
*332 FILLER_13_37
*333 FILLER_13_49
*334 FILLER_13_55
*335 FILLER_13_57
*336 FILLER_13_69
*337 FILLER_13_81
*338 FILLER_13_94
*339 FILLER_14_102
*340 FILLER_14_114
*341 FILLER_14_118
*342 FILLER_14_124
*343 FILLER_14_136
*344 FILLER_14_141
*345 FILLER_14_146
*346 FILLER_14_15
*347 FILLER_14_158
*348 FILLER_14_170
*349 FILLER_14_182
*350 FILLER_14_194
*351 FILLER_14_197
*352 FILLER_14_209
*353 FILLER_14_213
*354 FILLER_14_217
*355 FILLER_14_229
*356 FILLER_14_27
*357 FILLER_14_29
*358 FILLER_14_3
*359 FILLER_14_35
*360 FILLER_14_47
*361 FILLER_14_59
*362 FILLER_14_71
*363 FILLER_14_83
*364 FILLER_14_85
*365 FILLER_14_95
*366 FILLER_15_110
*367 FILLER_15_113
*368 FILLER_15_125
*369 FILLER_15_136
*370 FILLER_15_15
*371 FILLER_15_151
*372 FILLER_15_158
*373 FILLER_15_166
*374 FILLER_15_169
*375 FILLER_15_193
*376 FILLER_15_201
*377 FILLER_15_205
*378 FILLER_15_216
*379 FILLER_15_225
*380 FILLER_15_233
*381 FILLER_15_27
*382 FILLER_15_3
*383 FILLER_15_39
*384 FILLER_15_51
*385 FILLER_15_55
*386 FILLER_15_57
*387 FILLER_15_69
*388 FILLER_15_86
*389 FILLER_16_102
*390 FILLER_16_109
*391 FILLER_16_121
*392 FILLER_16_127
*393 FILLER_16_131
*394 FILLER_16_139
*395 FILLER_16_141
*396 FILLER_16_149
*397 FILLER_16_15
*398 FILLER_16_157
*399 FILLER_16_161
*400 FILLER_16_169
*401 FILLER_16_181
*402 FILLER_16_193
*403 FILLER_16_197
*404 FILLER_16_208
*405 FILLER_16_232
*406 FILLER_16_240
*407 FILLER_16_26
*408 FILLER_16_29
*409 FILLER_16_3
*410 FILLER_16_51
*411 FILLER_16_62
*412 FILLER_16_75
*413 FILLER_16_82
*414 FILLER_16_85
*415 FILLER_16_94
*416 FILLER_17_103
*417 FILLER_17_111
*418 FILLER_17_113
*419 FILLER_17_125
*420 FILLER_17_137
*421 FILLER_17_149
*422 FILLER_17_15
*423 FILLER_17_155
*424 FILLER_17_166
*425 FILLER_17_169
*426 FILLER_17_174
*427 FILLER_17_186
*428 FILLER_17_198
*429 FILLER_17_210
*430 FILLER_17_219
*431 FILLER_17_223
*432 FILLER_17_225
*433 FILLER_17_23
*434 FILLER_17_239
*435 FILLER_17_27
*436 FILLER_17_3
*437 FILLER_17_37
*438 FILLER_17_44
*439 FILLER_17_51
*440 FILLER_17_55
*441 FILLER_17_57
*442 FILLER_17_79
*443 FILLER_17_87
*444 FILLER_17_91
*445 FILLER_18_109
*446 FILLER_18_121
*447 FILLER_18_133
*448 FILLER_18_139
*449 FILLER_18_141
*450 FILLER_18_15
*451 FILLER_18_153
*452 FILLER_18_161
*453 FILLER_18_167
*454 FILLER_18_176
*455 FILLER_18_188
*456 FILLER_18_197
*457 FILLER_18_209
*458 FILLER_18_221
*459 FILLER_18_233
*460 FILLER_18_27
*461 FILLER_18_29
*462 FILLER_18_3
*463 FILLER_18_37
*464 FILLER_18_48
*465 FILLER_18_60
*466 FILLER_18_72
*467 FILLER_18_85
*468 FILLER_18_97
*469 FILLER_19_105
*470 FILLER_19_111
*471 FILLER_19_113
*472 FILLER_19_125
*473 FILLER_19_137
*474 FILLER_19_149
*475 FILLER_19_15
*476 FILLER_19_161
*477 FILLER_19_167
*478 FILLER_19_169
*479 FILLER_19_173
*480 FILLER_19_181
*481 FILLER_19_189
*482 FILLER_19_211
*483 FILLER_19_223
*484 FILLER_19_225
*485 FILLER_19_237
*486 FILLER_19_27
*487 FILLER_19_3
*488 FILLER_19_39
*489 FILLER_19_48
*490 FILLER_19_57
*491 FILLER_19_69
*492 FILLER_19_81
*493 FILLER_19_93
*494 FILLER_1_105
*495 FILLER_1_111
*496 FILLER_1_113
*497 FILLER_1_125
*498 FILLER_1_137
*499 FILLER_1_149
*500 FILLER_1_15
*501 FILLER_1_161
*502 FILLER_1_167
*503 FILLER_1_169
*504 FILLER_1_181
*505 FILLER_1_193
*506 FILLER_1_205
*507 FILLER_1_217
*508 FILLER_1_223
*509 FILLER_1_225
*510 FILLER_1_237
*511 FILLER_1_27
*512 FILLER_1_3
*513 FILLER_1_39
*514 FILLER_1_51
*515 FILLER_1_55
*516 FILLER_1_57
*517 FILLER_1_69
*518 FILLER_1_81
*519 FILLER_1_93
*520 FILLER_20_109
*521 FILLER_20_121
*522 FILLER_20_133
*523 FILLER_20_139
*524 FILLER_20_141
*525 FILLER_20_15
*526 FILLER_20_153
*527 FILLER_20_165
*528 FILLER_20_171
*529 FILLER_20_175
*530 FILLER_20_187
*531 FILLER_20_195
*532 FILLER_20_197
*533 FILLER_20_209
*534 FILLER_20_221
*535 FILLER_20_233
*536 FILLER_20_27
*537 FILLER_20_29
*538 FILLER_20_3
*539 FILLER_20_41
*540 FILLER_20_53
*541 FILLER_20_65
*542 FILLER_20_77
*543 FILLER_20_83
*544 FILLER_20_85
*545 FILLER_20_97
*546 FILLER_21_105
*547 FILLER_21_111
*548 FILLER_21_113
*549 FILLER_21_125
*550 FILLER_21_137
*551 FILLER_21_149
*552 FILLER_21_161
*553 FILLER_21_167
*554 FILLER_21_169
*555 FILLER_21_181
*556 FILLER_21_193
*557 FILLER_21_205
*558 FILLER_21_21
*559 FILLER_21_217
*560 FILLER_21_223
*561 FILLER_21_225
*562 FILLER_21_237
*563 FILLER_21_3
*564 FILLER_21_33
*565 FILLER_21_45
*566 FILLER_21_53
*567 FILLER_21_57
*568 FILLER_21_69
*569 FILLER_21_81
*570 FILLER_21_9
*571 FILLER_21_93
*572 FILLER_22_109
*573 FILLER_22_115
*574 FILLER_22_119
*575 FILLER_22_131
*576 FILLER_22_139
*577 FILLER_22_141
*578 FILLER_22_15
*579 FILLER_22_153
*580 FILLER_22_159
*581 FILLER_22_163
*582 FILLER_22_175
*583 FILLER_22_187
*584 FILLER_22_195
*585 FILLER_22_197
*586 FILLER_22_209
*587 FILLER_22_221
*588 FILLER_22_233
*589 FILLER_22_27
*590 FILLER_22_29
*591 FILLER_22_3
*592 FILLER_22_41
*593 FILLER_22_53
*594 FILLER_22_65
*595 FILLER_22_77
*596 FILLER_22_83
*597 FILLER_22_85
*598 FILLER_22_97
*599 FILLER_23_108
*600 FILLER_23_113
*601 FILLER_23_124
*602 FILLER_23_136
*603 FILLER_23_148
*604 FILLER_23_15
*605 FILLER_23_156
*606 FILLER_23_162
*607 FILLER_23_169
*608 FILLER_23_181
*609 FILLER_23_193
*610 FILLER_23_205
*611 FILLER_23_222
*612 FILLER_23_225
*613 FILLER_23_237
*614 FILLER_23_27
*615 FILLER_23_3
*616 FILLER_23_39
*617 FILLER_23_51
*618 FILLER_23_55
*619 FILLER_23_57
*620 FILLER_23_69
*621 FILLER_23_81
*622 FILLER_23_96
*623 FILLER_24_100
*624 FILLER_24_108
*625 FILLER_24_114
*626 FILLER_24_138
*627 FILLER_24_141
*628 FILLER_24_15
*629 FILLER_24_150
*630 FILLER_24_160
*631 FILLER_24_172
*632 FILLER_24_184
*633 FILLER_24_197
*634 FILLER_24_209
*635 FILLER_24_232
*636 FILLER_24_240
*637 FILLER_24_27
*638 FILLER_24_29
*639 FILLER_24_3
*640 FILLER_24_41
*641 FILLER_24_53
*642 FILLER_24_65
*643 FILLER_24_77
*644 FILLER_24_83
*645 FILLER_24_85
*646 FILLER_25_109
*647 FILLER_25_113
*648 FILLER_25_126
*649 FILLER_25_138
*650 FILLER_25_15
*651 FILLER_25_166
*652 FILLER_25_169
*653 FILLER_25_181
*654 FILLER_25_193
*655 FILLER_25_205
*656 FILLER_25_209
*657 FILLER_25_220
*658 FILLER_25_225
*659 FILLER_25_231
*660 FILLER_25_239
*661 FILLER_25_3
*662 FILLER_25_36
*663 FILLER_25_48
*664 FILLER_25_57
*665 FILLER_25_62
*666 FILLER_25_79
*667 FILLER_25_99
*668 FILLER_26_110
*669 FILLER_26_117
*670 FILLER_26_129
*671 FILLER_26_137
*672 FILLER_26_141
*673 FILLER_26_15
*674 FILLER_26_152
*675 FILLER_26_164
*676 FILLER_26_176
*677 FILLER_26_188
*678 FILLER_26_197
*679 FILLER_26_209
*680 FILLER_26_213
*681 FILLER_26_219
*682 FILLER_26_226
*683 FILLER_26_238
*684 FILLER_26_26
*685 FILLER_26_29
*686 FILLER_26_3
*687 FILLER_26_34
*688 FILLER_26_51
*689 FILLER_26_75
*690 FILLER_26_82
*691 FILLER_26_85
*692 FILLER_27_108
*693 FILLER_27_113
*694 FILLER_27_125
*695 FILLER_27_137
*696 FILLER_27_149
*697 FILLER_27_16
*698 FILLER_27_161
*699 FILLER_27_167
*700 FILLER_27_169
*701 FILLER_27_180
*702 FILLER_27_184
*703 FILLER_27_205
*704 FILLER_27_217
*705 FILLER_27_223
*706 FILLER_27_225
*707 FILLER_27_237
*708 FILLER_27_26
*709 FILLER_27_3
*710 FILLER_27_35
*711 FILLER_27_42
*712 FILLER_27_54
*713 FILLER_27_57
*714 FILLER_27_74
*715 FILLER_27_8
*716 FILLER_28_103
*717 FILLER_28_115
*718 FILLER_28_127
*719 FILLER_28_139
*720 FILLER_28_141
*721 FILLER_28_15
*722 FILLER_28_153
*723 FILLER_28_165
*724 FILLER_28_169
*725 FILLER_28_182
*726 FILLER_28_189
*727 FILLER_28_195
*728 FILLER_28_197
*729 FILLER_28_209
*730 FILLER_28_21
*731 FILLER_28_221
*732 FILLER_28_233
*733 FILLER_28_25
*734 FILLER_28_29
*735 FILLER_28_3
*736 FILLER_28_34
*737 FILLER_28_46
*738 FILLER_28_58
*739 FILLER_28_70
*740 FILLER_28_82
*741 FILLER_28_85
*742 FILLER_28_91
*743 FILLER_29_105
*744 FILLER_29_111
*745 FILLER_29_113
*746 FILLER_29_125
*747 FILLER_29_137
*748 FILLER_29_149
*749 FILLER_29_15
*750 FILLER_29_161
*751 FILLER_29_167
*752 FILLER_29_169
*753 FILLER_29_175
*754 FILLER_29_183
*755 FILLER_29_195
*756 FILLER_29_207
*757 FILLER_29_219
*758 FILLER_29_223
*759 FILLER_29_225
*760 FILLER_29_237
*761 FILLER_29_26
*762 FILLER_29_3
*763 FILLER_29_38
*764 FILLER_29_50
*765 FILLER_29_57
*766 FILLER_29_69
*767 FILLER_29_81
*768 FILLER_29_93
*769 FILLER_2_109
*770 FILLER_2_121
*771 FILLER_2_133
*772 FILLER_2_139
*773 FILLER_2_141
*774 FILLER_2_15
*775 FILLER_2_153
*776 FILLER_2_165
*777 FILLER_2_177
*778 FILLER_2_189
*779 FILLER_2_195
*780 FILLER_2_197
*781 FILLER_2_209
*782 FILLER_2_221
*783 FILLER_2_233
*784 FILLER_2_27
*785 FILLER_2_29
*786 FILLER_2_3
*787 FILLER_2_41
*788 FILLER_2_53
*789 FILLER_2_65
*790 FILLER_2_77
*791 FILLER_2_83
*792 FILLER_2_85
*793 FILLER_2_97
*794 FILLER_30_109
*795 FILLER_30_121
*796 FILLER_30_133
*797 FILLER_30_139
*798 FILLER_30_141
*799 FILLER_30_15
*800 FILLER_30_153
*801 FILLER_30_165
*802 FILLER_30_177
*803 FILLER_30_189
*804 FILLER_30_195
*805 FILLER_30_197
*806 FILLER_30_209
*807 FILLER_30_220
*808 FILLER_30_232
*809 FILLER_30_239
*810 FILLER_30_27
*811 FILLER_30_29
*812 FILLER_30_3
*813 FILLER_30_41
*814 FILLER_30_53
*815 FILLER_30_73
*816 FILLER_30_81
*817 FILLER_30_85
*818 FILLER_30_97
*819 FILLER_31_100
*820 FILLER_31_113
*821 FILLER_31_125
*822 FILLER_31_137
*823 FILLER_31_149
*824 FILLER_31_15
*825 FILLER_31_161
*826 FILLER_31_167
*827 FILLER_31_169
*828 FILLER_31_181
*829 FILLER_31_193
*830 FILLER_31_205
*831 FILLER_31_209
*832 FILLER_31_213
*833 FILLER_31_222
*834 FILLER_31_225
*835 FILLER_31_237
*836 FILLER_31_27
*837 FILLER_31_3
*838 FILLER_31_39
*839 FILLER_31_51
*840 FILLER_31_55
*841 FILLER_31_57
*842 FILLER_31_76
*843 FILLER_31_88
*844 FILLER_32_109
*845 FILLER_32_121
*846 FILLER_32_133
*847 FILLER_32_139
*848 FILLER_32_141
*849 FILLER_32_146
*850 FILLER_32_15
*851 FILLER_32_158
*852 FILLER_32_170
*853 FILLER_32_182
*854 FILLER_32_194
*855 FILLER_32_197
*856 FILLER_32_203
*857 FILLER_32_208
*858 FILLER_32_232
*859 FILLER_32_240
*860 FILLER_32_27
*861 FILLER_32_29
*862 FILLER_32_3
*863 FILLER_32_41
*864 FILLER_32_49
*865 FILLER_32_61
*866 FILLER_32_75
*867 FILLER_32_83
*868 FILLER_32_85
*869 FILLER_32_97
*870 FILLER_33_110
*871 FILLER_33_113
*872 FILLER_33_125
*873 FILLER_33_149
*874 FILLER_33_15
*875 FILLER_33_161
*876 FILLER_33_167
*877 FILLER_33_169
*878 FILLER_33_175
*879 FILLER_33_179
*880 FILLER_33_188
*881 FILLER_33_200
*882 FILLER_33_212
*883 FILLER_33_221
*884 FILLER_33_225
*885 FILLER_33_237
*886 FILLER_33_27
*887 FILLER_33_3
*888 FILLER_33_39
*889 FILLER_33_51
*890 FILLER_33_55
*891 FILLER_33_57
*892 FILLER_33_74
*893 FILLER_33_86
*894 FILLER_33_98
*895 FILLER_34_102
*896 FILLER_34_114
*897 FILLER_34_129
*898 FILLER_34_138
*899 FILLER_34_141
*900 FILLER_34_148
*901 FILLER_34_15
*902 FILLER_34_172
*903 FILLER_34_180
*904 FILLER_34_187
*905 FILLER_34_195
*906 FILLER_34_197
*907 FILLER_34_209
*908 FILLER_34_221
*909 FILLER_34_233
*910 FILLER_34_27
*911 FILLER_34_29
*912 FILLER_34_3
*913 FILLER_34_41
*914 FILLER_34_70
*915 FILLER_34_79
*916 FILLER_34_83
*917 FILLER_34_85
*918 FILLER_34_90
*919 FILLER_35_111
*920 FILLER_35_113
*921 FILLER_35_125
*922 FILLER_35_137
*923 FILLER_35_145
*924 FILLER_35_15
*925 FILLER_35_166
*926 FILLER_35_169
*927 FILLER_35_181
*928 FILLER_35_209
*929 FILLER_35_221
*930 FILLER_35_225
*931 FILLER_35_237
*932 FILLER_35_27
*933 FILLER_35_3
*934 FILLER_35_39
*935 FILLER_35_51
*936 FILLER_35_55
*937 FILLER_35_57
*938 FILLER_35_62
*939 FILLER_35_70
*940 FILLER_35_75
*941 FILLER_35_87
*942 FILLER_35_99
*943 FILLER_36_106
*944 FILLER_36_118
*945 FILLER_36_130
*946 FILLER_36_138
*947 FILLER_36_141
*948 FILLER_36_15
*949 FILLER_36_153
*950 FILLER_36_170
*951 FILLER_36_179
*952 FILLER_36_187
*953 FILLER_36_192
*954 FILLER_36_197
*955 FILLER_36_209
*956 FILLER_36_221
*957 FILLER_36_233
*958 FILLER_36_27
*959 FILLER_36_29
*960 FILLER_36_3
*961 FILLER_36_41
*962 FILLER_36_53
*963 FILLER_36_65
*964 FILLER_36_82
*965 FILLER_36_85
*966 FILLER_36_94
*967 FILLER_37_101
*968 FILLER_37_109
*969 FILLER_37_113
*970 FILLER_37_125
*971 FILLER_37_137
*972 FILLER_37_149
*973 FILLER_37_15
*974 FILLER_37_161
*975 FILLER_37_167
*976 FILLER_37_169
*977 FILLER_37_181
*978 FILLER_37_193
*979 FILLER_37_205
*980 FILLER_37_217
*981 FILLER_37_223
*982 FILLER_37_225
*983 FILLER_37_237
*984 FILLER_37_27
*985 FILLER_37_3
*986 FILLER_37_39
*987 FILLER_37_51
*988 FILLER_37_55
*989 FILLER_37_57
*990 FILLER_37_69
*991 FILLER_37_81
*992 FILLER_37_85
*993 FILLER_37_89
*994 FILLER_38_109
*995 FILLER_38_121
*996 FILLER_38_133
*997 FILLER_38_139
*998 FILLER_38_141
*999 FILLER_38_15
*1000 FILLER_38_153
*1001 FILLER_38_165
*1002 FILLER_38_177
*1003 FILLER_38_189
*1004 FILLER_38_195
*1005 FILLER_38_197
*1006 FILLER_38_209
*1007 FILLER_38_221
*1008 FILLER_38_233
*1009 FILLER_38_27
*1010 FILLER_38_29
*1011 FILLER_38_3
*1012 FILLER_38_41
*1013 FILLER_38_53
*1014 FILLER_38_65
*1015 FILLER_38_77
*1016 FILLER_38_83
*1017 FILLER_38_85
*1018 FILLER_38_97
*1019 FILLER_39_105
*1020 FILLER_39_111
*1021 FILLER_39_113
*1022 FILLER_39_125
*1023 FILLER_39_137
*1024 FILLER_39_149
*1025 FILLER_39_15
*1026 FILLER_39_161
*1027 FILLER_39_167
*1028 FILLER_39_169
*1029 FILLER_39_181
*1030 FILLER_39_193
*1031 FILLER_39_205
*1032 FILLER_39_217
*1033 FILLER_39_223
*1034 FILLER_39_225
*1035 FILLER_39_237
*1036 FILLER_39_27
*1037 FILLER_39_3
*1038 FILLER_39_39
*1039 FILLER_39_51
*1040 FILLER_39_55
*1041 FILLER_39_57
*1042 FILLER_39_69
*1043 FILLER_39_81
*1044 FILLER_39_93
*1045 FILLER_3_105
*1046 FILLER_3_111
*1047 FILLER_3_113
*1048 FILLER_3_125
*1049 FILLER_3_137
*1050 FILLER_3_149
*1051 FILLER_3_15
*1052 FILLER_3_160
*1053 FILLER_3_169
*1054 FILLER_3_181
*1055 FILLER_3_193
*1056 FILLER_3_205
*1057 FILLER_3_217
*1058 FILLER_3_223
*1059 FILLER_3_225
*1060 FILLER_3_237
*1061 FILLER_3_27
*1062 FILLER_3_3
*1063 FILLER_3_39
*1064 FILLER_3_51
*1065 FILLER_3_55
*1066 FILLER_3_57
*1067 FILLER_3_69
*1068 FILLER_3_81
*1069 FILLER_3_93
*1070 FILLER_40_105
*1071 FILLER_40_111
*1072 FILLER_40_113
*1073 FILLER_40_125
*1074 FILLER_40_137
*1075 FILLER_40_141
*1076 FILLER_40_147
*1077 FILLER_40_159
*1078 FILLER_40_167
*1079 FILLER_40_169
*1080 FILLER_40_181
*1081 FILLER_40_193
*1082 FILLER_40_197
*1083 FILLER_40_209
*1084 FILLER_40_21
*1085 FILLER_40_221
*1086 FILLER_40_225
*1087 FILLER_40_239
*1088 FILLER_40_27
*1089 FILLER_40_29
*1090 FILLER_40_3
*1091 FILLER_40_34
*1092 FILLER_40_46
*1093 FILLER_40_54
*1094 FILLER_40_57
*1095 FILLER_40_69
*1096 FILLER_40_81
*1097 FILLER_40_85
*1098 FILLER_40_9
*1099 FILLER_40_97
*1100 FILLER_4_125
*1101 FILLER_4_137
*1102 FILLER_4_141
*1103 FILLER_4_15
*1104 FILLER_4_150
*1105 FILLER_4_154
*1106 FILLER_4_175
*1107 FILLER_4_187
*1108 FILLER_4_195
*1109 FILLER_4_197
*1110 FILLER_4_209
*1111 FILLER_4_221
*1112 FILLER_4_239
*1113 FILLER_4_27
*1114 FILLER_4_29
*1115 FILLER_4_3
*1116 FILLER_4_41
*1117 FILLER_4_53
*1118 FILLER_4_65
*1119 FILLER_4_77
*1120 FILLER_4_83
*1121 FILLER_4_85
*1122 FILLER_4_97
*1123 FILLER_5_110
*1124 FILLER_5_113
*1125 FILLER_5_125
*1126 FILLER_5_137
*1127 FILLER_5_15
*1128 FILLER_5_163
*1129 FILLER_5_167
*1130 FILLER_5_169
*1131 FILLER_5_176
*1132 FILLER_5_188
*1133 FILLER_5_200
*1134 FILLER_5_212
*1135 FILLER_5_225
*1136 FILLER_5_237
*1137 FILLER_5_27
*1138 FILLER_5_3
*1139 FILLER_5_39
*1140 FILLER_5_51
*1141 FILLER_5_55
*1142 FILLER_5_57
*1143 FILLER_5_69
*1144 FILLER_5_81
*1145 FILLER_5_89
*1146 FILLER_6_105
*1147 FILLER_6_117
*1148 FILLER_6_129
*1149 FILLER_6_138
*1150 FILLER_6_141
*1151 FILLER_6_15
*1152 FILLER_6_154
*1153 FILLER_6_165
*1154 FILLER_6_176
*1155 FILLER_6_188
*1156 FILLER_6_197
*1157 FILLER_6_209
*1158 FILLER_6_221
*1159 FILLER_6_233
*1160 FILLER_6_27
*1161 FILLER_6_29
*1162 FILLER_6_3
*1163 FILLER_6_41
*1164 FILLER_6_53
*1165 FILLER_6_65
*1166 FILLER_6_77
*1167 FILLER_6_83
*1168 FILLER_6_85
*1169 FILLER_6_94
*1170 FILLER_7_104
*1171 FILLER_7_113
*1172 FILLER_7_118
*1173 FILLER_7_130
*1174 FILLER_7_142
*1175 FILLER_7_15
*1176 FILLER_7_150
*1177 FILLER_7_162
*1178 FILLER_7_169
*1179 FILLER_7_174
*1180 FILLER_7_186
*1181 FILLER_7_198
*1182 FILLER_7_210
*1183 FILLER_7_222
*1184 FILLER_7_225
*1185 FILLER_7_237
*1186 FILLER_7_27
*1187 FILLER_7_3
*1188 FILLER_7_39
*1189 FILLER_7_51
*1190 FILLER_7_55
*1191 FILLER_7_57
*1192 FILLER_7_69
*1193 FILLER_7_84
*1194 FILLER_7_93
*1195 FILLER_8_103
*1196 FILLER_8_107
*1197 FILLER_8_119
*1198 FILLER_8_131
*1199 FILLER_8_139
*1200 FILLER_8_141
*1201 FILLER_8_15
*1202 FILLER_8_153
*1203 FILLER_8_162
*1204 FILLER_8_174
*1205 FILLER_8_186
*1206 FILLER_8_194
*1207 FILLER_8_197
*1208 FILLER_8_209
*1209 FILLER_8_221
*1210 FILLER_8_233
*1211 FILLER_8_27
*1212 FILLER_8_29
*1213 FILLER_8_3
*1214 FILLER_8_41
*1215 FILLER_8_53
*1216 FILLER_8_65
*1217 FILLER_8_77
*1218 FILLER_8_83
*1219 FILLER_8_85
*1220 FILLER_8_95
*1221 FILLER_9_102
*1222 FILLER_9_110
*1223 FILLER_9_113
*1224 FILLER_9_125
*1225 FILLER_9_137
*1226 FILLER_9_149
*1227 FILLER_9_15
*1228 FILLER_9_161
*1229 FILLER_9_167
*1230 FILLER_9_169
*1231 FILLER_9_181
*1232 FILLER_9_193
*1233 FILLER_9_202
*1234 FILLER_9_214
*1235 FILLER_9_222
*1236 FILLER_9_225
*1237 FILLER_9_237
*1238 FILLER_9_27
*1239 FILLER_9_3
*1240 FILLER_9_31
*1241 FILLER_9_35
*1242 FILLER_9_47
*1243 FILLER_9_55
*1244 FILLER_9_57
*1245 FILLER_9_69
*1246 FILLER_9_81
*1247 FILLER_9_90
*1248 PHY_0
*1249 PHY_1
*1250 PHY_10
*1251 PHY_11
*1252 PHY_12
*1253 PHY_13
*1254 PHY_14
*1255 PHY_15
*1256 PHY_16
*1257 PHY_17
*1258 PHY_18
*1259 PHY_19
*1260 PHY_2
*1261 PHY_20
*1262 PHY_21
*1263 PHY_22
*1264 PHY_23
*1265 PHY_24
*1266 PHY_25
*1267 PHY_26
*1268 PHY_27
*1269 PHY_28
*1270 PHY_29
*1271 PHY_3
*1272 PHY_30
*1273 PHY_31
*1274 PHY_32
*1275 PHY_33
*1276 PHY_34
*1277 PHY_35
*1278 PHY_36
*1279 PHY_37
*1280 PHY_38
*1281 PHY_39
*1282 PHY_4
*1283 PHY_40
*1284 PHY_41
*1285 PHY_42
*1286 PHY_43
*1287 PHY_44
*1288 PHY_45
*1289 PHY_46
*1290 PHY_47
*1291 PHY_48
*1292 PHY_49
*1293 PHY_5
*1294 PHY_50
*1295 PHY_51
*1296 PHY_52
*1297 PHY_53
*1298 PHY_54
*1299 PHY_55
*1300 PHY_56
*1301 PHY_57
*1302 PHY_58
*1303 PHY_59
*1304 PHY_6
*1305 PHY_60
*1306 PHY_61
*1307 PHY_62
*1308 PHY_63
*1309 PHY_64
*1310 PHY_65
*1311 PHY_66
*1312 PHY_67
*1313 PHY_68
*1314 PHY_69
*1315 PHY_7
*1316 PHY_70
*1317 PHY_71
*1318 PHY_72
*1319 PHY_73
*1320 PHY_74
*1321 PHY_75
*1322 PHY_76
*1323 PHY_77
*1324 PHY_78
*1325 PHY_79
*1326 PHY_8
*1327 PHY_80
*1328 PHY_81
*1329 PHY_9
*1330 TAP_100
*1331 TAP_101
*1332 TAP_102
*1333 TAP_103
*1334 TAP_104
*1335 TAP_105
*1336 TAP_106
*1337 TAP_107
*1338 TAP_108
*1339 TAP_109
*1340 TAP_110
*1341 TAP_111
*1342 TAP_112
*1343 TAP_113
*1344 TAP_114
*1345 TAP_115
*1346 TAP_116
*1347 TAP_117
*1348 TAP_118
*1349 TAP_119
*1350 TAP_120
*1351 TAP_121
*1352 TAP_122
*1353 TAP_123
*1354 TAP_124
*1355 TAP_125
*1356 TAP_126
*1357 TAP_127
*1358 TAP_128
*1359 TAP_129
*1360 TAP_130
*1361 TAP_131
*1362 TAP_132
*1363 TAP_133
*1364 TAP_134
*1365 TAP_135
*1366 TAP_136
*1367 TAP_137
*1368 TAP_138
*1369 TAP_139
*1370 TAP_140
*1371 TAP_141
*1372 TAP_142
*1373 TAP_143
*1374 TAP_144
*1375 TAP_145
*1376 TAP_146
*1377 TAP_147
*1378 TAP_148
*1379 TAP_149
*1380 TAP_150
*1381 TAP_151
*1382 TAP_152
*1383 TAP_153
*1384 TAP_154
*1385 TAP_155
*1386 TAP_156
*1387 TAP_157
*1388 TAP_158
*1389 TAP_159
*1390 TAP_160
*1391 TAP_161
*1392 TAP_162
*1393 TAP_163
*1394 TAP_164
*1395 TAP_165
*1396 TAP_166
*1397 TAP_167
*1398 TAP_168
*1399 TAP_169
*1400 TAP_170
*1401 TAP_171
*1402 TAP_172
*1403 TAP_173
*1404 TAP_174
*1405 TAP_175
*1406 TAP_176
*1407 TAP_177
*1408 TAP_178
*1409 TAP_179
*1410 TAP_180
*1411 TAP_181
*1412 TAP_182
*1413 TAP_183
*1414 TAP_184
*1415 TAP_185
*1416 TAP_186
*1417 TAP_187
*1418 TAP_188
*1419 TAP_189
*1420 TAP_190
*1421 TAP_191
*1422 TAP_192
*1423 TAP_193
*1424 TAP_194
*1425 TAP_195
*1426 TAP_196
*1427 TAP_197
*1428 TAP_198
*1429 TAP_199
*1430 TAP_200
*1431 TAP_201
*1432 TAP_202
*1433 TAP_203
*1434 TAP_204
*1435 TAP_205
*1436 TAP_206
*1437 TAP_207
*1438 TAP_208
*1439 TAP_209
*1440 TAP_210
*1441 TAP_211
*1442 TAP_212
*1443 TAP_213
*1444 TAP_214
*1445 TAP_215
*1446 TAP_216
*1447 TAP_217
*1448 TAP_218
*1449 TAP_219
*1450 TAP_220
*1451 TAP_221
*1452 TAP_222
*1453 TAP_223
*1454 TAP_224
*1455 TAP_225
*1456 TAP_226
*1457 TAP_227
*1458 TAP_228
*1459 TAP_229
*1460 TAP_230
*1461 TAP_231
*1462 TAP_232
*1463 TAP_233
*1464 TAP_234
*1465 TAP_235
*1466 TAP_236
*1467 TAP_237
*1468 TAP_238
*1469 TAP_239
*1470 TAP_240
*1471 TAP_241
*1472 TAP_242
*1473 TAP_243
*1474 TAP_244
*1475 TAP_245
*1476 TAP_246
*1477 TAP_247
*1478 TAP_248
*1479 TAP_249
*1480 TAP_250
*1481 TAP_251
*1482 TAP_252
*1483 TAP_253
*1484 TAP_82
*1485 TAP_83
*1486 TAP_84
*1487 TAP_85
*1488 TAP_86
*1489 TAP_87
*1490 TAP_88
*1491 TAP_89
*1492 TAP_90
*1493 TAP_91
*1494 TAP_92
*1495 TAP_93
*1496 TAP_94
*1497 TAP_95
*1498 TAP_96
*1499 TAP_97
*1500 TAP_98
*1501 TAP_99
*1502 _109_
*1503 _110_
*1504 _111_
*1505 _112_
*1506 _113_
*1507 _114_
*1508 _115_
*1509 _116_
*1510 _117_
*1511 _118_
*1512 _119_
*1513 _120_
*1514 _121_
*1515 _122_
*1516 _123_
*1517 _124_
*1518 _125_
*1519 _126_
*1520 _127_
*1521 _128_
*1522 _129_
*1523 _130_
*1524 _131_
*1525 _132_
*1526 _133_
*1527 _134_
*1528 _135_
*1529 _136_
*1530 _137_
*1531 _138_
*1532 _139_
*1533 _140_
*1534 _141_
*1535 _142_
*1536 _143_
*1537 _144_
*1538 _145_
*1539 _146_
*1540 _147_
*1541 _148_
*1542 _149_
*1543 _150_
*1544 _151_
*1545 _152_
*1546 _153_
*1547 _154_
*1548 _155_
*1549 _156_
*1550 _157_
*1551 _158_
*1552 _159_
*1553 _160_
*1554 _161_
*1555 _162_
*1556 _163_
*1557 _164_
*1558 _165_
*1559 _166_
*1560 _167_
*1561 _168_
*1562 _169_
*1563 _170_
*1564 _171_
*1565 _172_
*1566 _173_
*1567 _174_
*1568 _175_
*1569 _176_
*1570 _177_
*1571 _178_
*1572 _179_
*1573 _180_
*1574 _181_
*1575 _182_
*1576 _183_
*1577 _184_
*1578 _185_
*1579 _186_
*1580 _187_
*1581 _188_
*1582 _189_
*1583 _190_
*1584 _191_
*1585 _192_
*1586 _193_
*1587 _194_
*1588 _195_
*1589 _196_
*1590 _197_
*1591 _198_
*1592 _199_
*1593 _200_
*1594 _201_
*1595 _202_
*1596 _203_
*1597 _204_
*1598 _205_
*1599 _206_
*1600 _207_
*1601 _208_
*1602 _209_
*1603 _210_
*1604 _211_
*1605 _212_
*1606 _213_
*1607 _214_
*1608 _215_
*1609 _216_
*1610 _217_
*1611 _218_
*1612 _219_
*1613 _220_
*1614 _221_
*1615 _222_
*1616 _223_
*1617 _224_
*1618 _225_
*1619 _226_
*1620 _227_
*1621 _228_
*1622 _229_
*1623 _230_
*1624 _231_
*1625 _232_
*1626 _233_
*1627 _234_
*1628 _235_
*1629 _236_
*1630 _237_
*1631 _238_
*1632 _239_
*1633 _240_
*1634 _241_
*1635 _242_
*1636 _243_
*1637 _244_
*1638 _245_
*1639 _246_
*1640 _247_
*1641 _248_
*1642 _249_
*1643 _250_
*1644 _251_
*1645 _252_
*1646 _253_
*1647 _254_
*1648 _255_
*1649 _256_
*1650 _257_
*1651 _258_
*1652 _259_
*1653 _260_
*1654 _261_
*1655 _262_
*1656 _263_
*1657 _264_
*1658 _265_
*1659 _266_
*1660 _267_
*1661 _268_
*1662 _269_
*1663 _270_
*1664 _271_
*1665 _272_
*1666 fanout15
*1667 fanout16
*1668 fanout17
*1669 fanout18
*1670 fanout19
*1671 fanout20
*1672 input1
*1673 input2
*1674 input3
*1675 input4
*1676 input5
*1677 input6
*1678 input7
*1679 input8
*1680 input9
*1681 output10
*1682 output11
*1683 output12
*1684 output13
*1685 output14

*PORTS
Clk I
In_Data[0] I
In_Data[10] I
In_Data[11] I
In_Data[12] I
In_Data[13] I
In_Data[14] I
In_Data[15] I
In_Data[16] I
In_Data[17] I
In_Data[18] I
In_Data[19] I
In_Data[1] I
In_Data[20] I
In_Data[21] I
In_Data[22] I
In_Data[23] I
In_Data[2] I
In_Data[3] I
In_Data[4] I
In_Data[5] I
In_Data[6] I
In_Data[7] I
In_Data[8] I
In_Data[9] I
Out_Data[0] O
Out_Data[1] O
Out_Data[2] O
Out_Data[3] O
Out_Data[4] O
reset I

*D_NET *1 0.000575227
*CONN
*P Clk I
*I *1672:A I *D sky130_fd_sc_hd__clkbuf_2
*CAP
1 Clk 0.000287613
2 *1672:A 0.000287613
3 *1672:A *187:35 0
*RES
1 Clk *1672:A 48.393 
*END

*D_NET *2 0.000724638
*CONN
*P In_Data[0] I
*I *1673:A I *D sky130_fd_sc_hd__clkbuf_2
*CAP
1 In_Data[0] 0.000362319
2 *1673:A 0.000362319
3 *1673:A *190:11 0
*RES
1 In_Data[0] *1673:A 47.4457 
*END

*D_NET *13 0.000851023
*CONN
*P In_Data[1] I
*I *1674:A I *D sky130_fd_sc_hd__dlymetal6s2s_1
*CAP
1 In_Data[1] 0.000425512
2 *1674:A 0.000425512
*RES
1 In_Data[1] *1674:A 49.2064 
*END

*D_NET *18 0.0020065
*CONN
*P In_Data[2] I
*I *1675:A I *D sky130_fd_sc_hd__dlymetal6s2s_1
*CAP
1 In_Data[2] 0.00100325
2 *1675:A 0
3 *18:11 0.00100325
4 *18:11 *201:7 0
*RES
1 In_Data[2] *18:11 39.3845 
2 *18:11 *1675:A 23 
*END

*D_NET *19 0.000481984
*CONN
*P In_Data[3] I
*I *1676:A I *D sky130_fd_sc_hd__clkbuf_1
*CAP
1 In_Data[3] 0.000240992
2 *1676:A 0.000240992
*RES
1 In_Data[3] *1676:A 47.6028 
*END

*D_NET *20 0.000987533
*CONN
*P In_Data[4] I
*I *1677:A I *D sky130_fd_sc_hd__clkbuf_1
*CAP
1 In_Data[4] 0.000493766
2 *1677:A 0
3 *20:8 0.000493766
4 *20:8 *203:7 0
*RES
1 In_Data[4] *20:8 27.6564 
2 *20:8 *1677:A 23 
*END

*D_NET *21 0.00112124
*CONN
*P In_Data[5] I
*I *1678:A I *D sky130_fd_sc_hd__clkbuf_1
*CAP
1 In_Data[5] 0.000560621
2 *1678:A 0
3 *21:8 0.000560621
*RES
1 In_Data[5] *21:8 29.4171 
2 *21:8 *1678:A 23 
*END

*D_NET *22 0.000615694
*CONN
*P In_Data[6] I
*I *1679:A I *D sky130_fd_sc_hd__dlymetal6s2s_1
*CAP
1 In_Data[6] 0.000307847
2 *1679:A 0.000307847
*RES