* NGSPICE file created from BGR.ext - technology: sky130A

.subckt bgr_pex Iref VDD GND
X0 VDD net1 net1 VDD sky130_fd_pr__pfet_g5v0d10v5 ad=5.684e+13p pd=4.8364e+08u as=6.38e+12p ps=5.676e+07u W=1 L=0.5
X1 VDD net1 Iref VDD sky130_fd_pr__pfet_g5v0d10v5 ad=0p pd=0u as=2.9e+13p ps=2.58e+08u W=1 L=0.5
X2 VDD net1 Iref VDD sky130_fd_pr__pfet_g5v0d10v5 ad=0p pd=0u as=0p ps=0u W=1 L=0.5
X3 VDD net1 Iref VDD sky130_fd_pr__pfet_g5v0d10v5 ad=0p pd=0u as=0p ps=0u W=1 L=0.5
X4 VDD net1 Iref VDD sky130_fd_pr__pfet_g5v0d10v5 ad=0p pd=0u as=0p ps=0u W=1 L=0.5
X5 VDD net1 Iref VDD sky130_fd_pr__pfet_g5v0d10v5 ad=0p pd=0u as=0p ps=0u W=1 L=0.5
X6 VDD net1 Iref VDD sky130_fd_pr__pfet_g5v0d10v5 ad=0p pd=0u as=0p ps=0u W=1 L=0.5
X7 net1 net1 VDD VDD sky130_fd_pr__pfet_g5v0d10v5 ad=0p pd=0u as=0p ps=0u W=1 L=0.5
X8 VDD net1 VBE VDD sky130_fd_pr__pfet_g5v0d10v5 ad=0p pd=0u as=1.45e+13p ps=1.0696e+08u W=1 L=0.5
X9 net4 VBE net5 VDD sky130_fd_pr__pfet_g5v0d10v5 ad=1.305e+13p pd=9.174e+07u as=2.668e+13p ps=1.8864e+08u W=1.5e+01 L=0.5
X10 Iref net1 VDD VDD sky130_fd_pr__pfet_g5v0d10v5 ad=0p pd=0u as=0p ps=0u W=1 L=0.5
X11 net1 net6 GND GND sky130_fd_pr__nfet_g5v0d10v5 ad=1.218e+12p pd=1.42e+07u as=1.827e+12p ps=2.13e+07u W=0.42 L=0.5
X12 Iref net1 VDD VDD sky130_fd_pr__pfet_g5v0d10v5 ad=0p pd=0u as=0p ps=0u W=1 L=0.5
X13 VDD net1 Iref VDD sky130_fd_pr__pfet_g5v0d10v5 ad=0p pd=0u as=0p ps=0u W=1 L=0.5
X14 VDD net1 Iref VDD sky130_fd_pr__pfet_g5v0d10v5 ad=0p pd=0u as=0p ps=0u W=1 L=0.5
X15 VDD net1 net1 VDD sky130_fd_pr__pfet_g5v0d10v5 ad=0p pd=0u as=0p ps=0u W=1 L=0.5
X16 VDD net1 Iref VDD sky130_fd_pr__pfet_g5v0d10v5 ad=0p pd=0u as=0p ps=0u W=1 L=0.5
X17 VDD net1 Iref VDD sky130_fd_pr__pfet_g5v0d10v5 ad=0p pd=0u as=0p ps=0u W=1 L=0.5
X18 Iref net1 VDD VDD sky130_fd_pr__pfet_g5v0d10v5 ad=0p pd=0u as=0p ps=0u W=1 L=0.5
X19 net1 net1 VDD VDD sky130_fd_pr__pfet_g5v0d10v5 ad=0p pd=0u as=0p ps=0u W=1 L=0.5
X20 VDD net1 Iref VDD sky130_fd_pr__pfet_g5v0d10v5 ad=0p pd=0u as=0p ps=0u W=1 L=0.5
X21 Iref net1 VDD VDD sky130_fd_pr__pfet_g5v0d10v5 ad=0p pd=0u as=0p ps=0u W=1 L=0.5
X22 GND GND GND sky130_fd_pr__res_xhigh_po W=1.41 L=1e+01
X23 VDD net1 Iref VDD sky130_fd_pr__pfet_g5v0d10v5 ad=0p pd=0u as=0p ps=0u W=1 L=0.5
X24 VDD net1 net1 VDD sky130_fd_pr__pfet_g5v0d10v5 ad=0p pd=0u as=0p ps=0u W=1 L=0.5
X25 Iref net1 VDD VDD sky130_fd_pr__pfet_g5v0d10v5 ad=0p pd=0u as=0p ps=0u W=1 L=0.5
X26 VDD net1 Iref VDD sky130_fd_pr__pfet_g5v0d10v5 ad=0p pd=0u as=0p ps=0u W=1 L=0.5
X27 net6 net4 GND GND sky130_fd_pr__nfet_g5v0d10v5 ad=4.872e+11p pd=5.68e+06u as=0p ps=0u W=0.42 L=0.5
X28 VDD net1 Iref VDD sky130_fd_pr__pfet_g5v0d10v5 ad=0p pd=0u as=0p ps=0u W=1 L=0.5
X29 net5 VBE net4 VDD sky130_fd_pr__pfet_g5v0d10v5 ad=0p pd=0u as=0p ps=0u W=1.5e+01 L=0.5
X30 Iref net1 VDD VDD sky130_fd_pr__pfet_g5v0d10v5 ad=0p pd=0u as=0p ps=0u W=1 L=0.5
X31 net1 net1 VDD VDD sky130_fd_pr__pfet_g5v0d10v5 ad=0p pd=0u as=0p ps=0u W=1 L=0.5
X32 Iref net1 VDD VDD sky130_fd_pr__pfet_g5v0d10v5 ad=0p pd=0u as=0p ps=0u W=1 L=0.5
X33 VDD net1 Iref VDD sky130_fd_pr__pfet_g5v0d10v5 ad=0p pd=0u as=0p ps=0u W=1 L=0.5
X34 Iref net1 VDD VDD sky130_fd_pr__pfet_g5v0d10v5 ad=0p pd=0u as=0p ps=0u W=1 L=0.5
X35 Iref net1 VDD VDD sky130_fd_pr__pfet_g5v0d10v5 ad=0p pd=0u as=0p ps=0u W=1 L=0.5
X36 Iref net1 VDD VDD sky130_fd_pr__pfet_g5v0d10v5 ad=0p pd=0u as=0p ps=0u W=1 L=0.5
X37 Iref net1 VDD VDD sky130_fd_pr__pfet_g5v0d10v5 ad=0p pd=0u as=0p ps=0u W=1 L=0.5
X38 VDD net1 net1 VDD sky130_fd_pr__pfet_g5v0d10v5 ad=0p pd=0u as=0p ps=0u W=1 L=0.5
X39 net1 net6 GND GND sky130_fd_pr__nfet_g5v0d10v5 ad=0p pd=0u as=0p ps=0u W=0.42 L=0.5
X40 VDD net1 Iref VDD sky130_fd_pr__pfet_g5v0d10v5 ad=0p pd=0u as=0p ps=0u W=1 L=0.5
X41 a_8020_n16493# a_8398_n14061# GND sky130_fd_pr__res_xhigh_po W=1.41 L=1e+01
X42 VDD net1 Iref VDD sky130_fd_pr__pfet_g5v0d10v5 ad=0p pd=0u as=0p ps=0u W=1 L=0.5
X43 VDD net1 Iref VDD sky130_fd_pr__pfet_g5v0d10v5 ad=0p pd=0u as=0p ps=0u W=1 L=0.5
X44 Iref net1 VDD VDD sky130_fd_pr__pfet_g5v0d10v5 ad=0p pd=0u as=0p ps=0u W=1 L=0.5
X45 Iref net1 VDD VDD sky130_fd_pr__pfet_g5v0d10v5 ad=0p pd=0u as=0p ps=0u W=1 L=0.5
X46 VDD net1 net1 VDD sky130_fd_pr__pfet_g5v0d10v5 ad=0p pd=0u as=0p ps=0u W=1 L=0.5
X47 VDD net1 Iref VDD sky130_fd_pr__pfet_g5v0d10v5 ad=0p pd=0u as=0p ps=0u W=1 L=0.5
X48 VDD net1 Iref VDD sky130_fd_pr__pfet_g5v0d10v5 ad=0p pd=0u as=0p ps=0u W=1 L=0.5
X49 Iref net1 VDD VDD sky130_fd_pr__pfet_g5v0d10v5 ad=0p pd=0u as=0p ps=0u W=1 L=0.5
X50 Iref net1 VDD VDD sky130_fd_pr__pfet_g5v0d10v5 ad=0p pd=0u as=0p ps=0u W=1 L=0.5
X51 GND GND GND sky130_fd_pr__res_xhigh_po W=1.41 L=1e+01
X52 Iref net1 VDD VDD sky130_fd_pr__pfet_g5v0d10v5 ad=0p pd=0u as=0p ps=0u W=1 L=0.5
X53 net5 VBE net4 VDD sky130_fd_pr__pfet_g5v0d10v5 ad=0p pd=0u as=0p ps=0u W=1.5e+01 L=0.5
X54 VDD net1 Iref VDD sky130_fd_pr__pfet_g5v0d10v5 ad=0p pd=0u as=0p ps=0u W=1 L=0.5
X55 VDD net1 Iref VDD sky130_fd_pr__pfet_g5v0d10v5 ad=0p pd=0u as=0p ps=0u W=1 L=0.5
X56 Iref net1 VDD VDD sky130_fd_pr__pfet_g5v0d10v5 ad=0p pd=0u as=0p ps=0u W=1 L=0.5
X57 Iref net1 VDD VDD sky130_fd_pr__pfet_g5v0d10v5 ad=0p pd=0u as=0p ps=0u W=1 L=0.5
X58 VDD net1 Iref VDD sky130_fd_pr__pfet_g5v0d10v5 ad=0p pd=0u as=0p ps=0u W=1 L=0.5
X59 Iref net1 VDD VDD sky130_fd_pr__pfet_g5v0d10v5 ad=0p pd=0u as=0p ps=0u W=1 L=0.5
X60 Iref net1 VDD VDD sky130_fd_pr__pfet_g5v0d10v5 ad=0p pd=0u as=0p ps=0u W=1 L=0.5
X61 Iref net1 VDD VDD sky130_fd_pr__pfet_g5v0d10v5 ad=0p pd=0u as=0p ps=0u W=1 L=0.5
X62 net4 VBE net5 VDD sky130_fd_pr__pfet_g5v0d10v5 ad=0p pd=0u as=0p ps=0u W=1.5e+01 L=0.5
X63 net1 net1 VDD VDD sky130_fd_pr__pfet_g5v0d10v5 ad=0p pd=0u as=0p ps=0u W=1 L=0.5
X64 Iref net1 VDD VDD sky130_fd_pr__pfet_g5v0d10v5 ad=0p pd=0u as=0p ps=0u W=1 L=0.5
X65 Iref net1 VDD VDD sky130_fd_pr__pfet_g5v0d10v5 ad=0p pd=0u as=0p ps=0u W=1 L=0.5
X66 net2 a_6886_n14061# GND sky130_fd_pr__res_xhigh_po W=1.41 L=1e+01
X67 net1 net6 GND GND sky130_fd_pr__nfet_g5v0d10v5 ad=0p pd=0u as=0p ps=0u W=0.42 L=0.5
X68 VDD net1 Iref VDD sky130_fd_pr__pfet_g5v0d10v5 ad=0p pd=0u as=0p ps=0u W=1 L=0.5
X69 Iref net1 VDD VDD sky130_fd_pr__pfet_g5v0d10v5 ad=0p pd=0u as=0p ps=0u W=1 L=0.5
X70 net1 net1 VDD VDD sky130_fd_pr__pfet_g5v0d10v5 ad=0p pd=0u as=0p ps=0u W=1 L=0.5
X71 net3 a_6886_n14061# GND sky130_fd_pr__res_xhigh_po W=1.41 L=1e+01
X72 Iref net1 VDD VDD sky130_fd_pr__pfet_g5v0d10v5 ad=0p pd=0u as=0p ps=0u W=1 L=0.5
X73 net4 VBE net5 VDD sky130_fd_pr__pfet_g5v0d10v5 ad=0p pd=0u as=0p ps=0u W=1.5e+01 L=0.5
X74 VBE net1 VDD VDD sky130_fd_pr__pfet_g5v0d10v5 ad=0p pd=0u as=0p ps=0u W=1 L=0.5
X75 Iref net1 VDD VDD sky130_fd_pr__pfet_g5v0d10v5 ad=0p pd=0u as=0p ps=0u W=1 L=0.5
X76 VDD net1 Iref VDD sky130_fd_pr__pfet_g5v0d10v5 ad=0p pd=0u as=0p ps=0u W=1 L=0.5
X77 VDD net1 Iref VDD sky130_fd_pr__pfet_g5v0d10v5 ad=0p pd=0u as=0p ps=0u W=1 L=0.5
X78 VDD net7 VBE VDD sky130_fd_pr__pfet_g5v0d10v5 ad=0p pd=0u as=0p ps=0u W=2e+01 L=1
X79 Iref net1 VDD VDD sky130_fd_pr__pfet_g5v0d10v5 ad=0p pd=0u as=0p ps=0u W=1 L=0.5
X80 net3 net1 VDD VDD sky130_fd_pr__pfet_g5v0d10v5 ad=2.9e+12p pd=2.58e+07u as=0p ps=0u W=1 L=0.5
X81 Iref net1 VDD VDD sky130_fd_pr__pfet_g5v0d10v5 ad=0p pd=0u as=0p ps=0u W=1 L=0.5
X82 VDD net1 Iref VDD sky130_fd_pr__pfet_g5v0d10v5 ad=0p pd=0u as=0p ps=0u W=1 L=0.5
X83 VDD net1 Iref VDD sky130_fd_pr__pfet_g5v0d10v5 ad=0p pd=0u as=0p ps=0u W=1 L=0.5
X84 Iref net1 VDD VDD sky130_fd_pr__pfet_g5v0d10v5 ad=0p pd=0u as=0p ps=0u W=1 L=0.5
X85 VDD net1 Iref VDD sky130_fd_pr__pfet_g5v0d10v5 ad=0p pd=0u as=0p ps=0u W=1 L=0.5
X86 Iref net1 VDD VDD sky130_fd_pr__pfet_g5v0d10v5 ad=0p pd=0u as=0p ps=0u W=1 L=0.5
X87 Iref net1 VDD VDD sky130_fd_pr__pfet_g5v0d10v5 ad=0p pd=0u as=0p ps=0u W=1 L=0.5
X88 VDD net1 Iref VDD sky130_fd_pr__pfet_g5v0d10v5 ad=0p pd=0u as=0p ps=0u W=1 L=0.5
X89 VDD net1 Iref VDD sky130_fd_pr__pfet_g5v0d10v5 ad=0p pd=0u as=0p ps=0u W=1 L=0.5
X90 VDD net1 Iref VDD sky130_fd_pr__pfet_g5v0d10v5 ad=0p pd=0u as=0p ps=0u W=1 L=0.5
X91 a_5752_n16493# a_4618_n14061# GND sky130_fd_pr__res_xhigh_po W=1.41 L=1e+01
X92 net1 net1 VDD VDD sky130_fd_pr__pfet_g5v0d10v5 ad=0p pd=0u as=0p ps=0u W=1 L=0.5
X93 VDD net1 net1 VDD sky130_fd_pr__pfet_g5v0d10v5 ad=0p pd=0u as=0p ps=0u W=1 L=0.5
X94 a_5752_n16493# a_6130_n14061# GND sky130_fd_pr__res_xhigh_po W=1.41 L=1e+01
X95 net1 net1 VDD VDD sky130_fd_pr__pfet_g5v0d10v5 ad=0p pd=0u as=0p ps=0u W=1 L=0.5
X96 Iref net1 VDD VDD sky130_fd_pr__pfet_g5v0d10v5 ad=0p pd=0u as=0p ps=0u W=1 L=0.5
X97 net1 net1 VDD VDD sky130_fd_pr__pfet_g5v0d10v5 ad=0p pd=0u as=0p ps=0u W=1 L=0.5
X98 net1 net6 GND GND sky130_fd_pr__nfet_g5v0d10v5 ad=0p pd=0u as=0p ps=0u W=0.42 L=0.5
X99 VDD net1 Iref VDD sky130_fd_pr__pfet_g5v0d10v5 ad=0p pd=0u as=0p ps=0u W=1 L=0.5
X100 VDD net1 net3 VDD sky130_fd_pr__pfet_g5v0d10v5 ad=0p pd=0u as=0p ps=0u W=1 L=0.5
X101 VDD net1 net3 VDD sky130_fd_pr__pfet_g5v0d10v5 ad=0p pd=0u as=0p ps=0u W=1 L=0.5
X102 GND net4 net4 GND sky130_fd_pr__nfet_g5v0d10v5 ad=0p pd=0u as=4.872e+11p ps=5.68e+06u W=0.42 L=0.5
X103 VDD net1 Iref VDD sky130_fd_pr__pfet_g5v0d10v5 ad=0p pd=0u as=0p ps=0u W=1 L=0.5
X104 Iref net1 VDD VDD sky130_fd_pr__pfet_g5v0d10v5 ad=0p pd=0u as=0p ps=0u W=1 L=0.5
X105 net3 net1 VDD VDD sky130_fd_pr__pfet_g5v0d10v5 ad=0p pd=0u as=0p ps=0u W=1 L=0.5
X106 a_9532_n16493# a_8398_n14061# GND sky130_fd_pr__res_xhigh_po W=1.41 L=1e+01
X107 VDD net1 Iref VDD sky130_fd_pr__pfet_g5v0d10v5 ad=0p pd=0u as=0p ps=0u W=1 L=0.5
X108 VDD net1 Iref VDD sky130_fd_pr__pfet_g5v0d10v5 ad=0p pd=0u as=0p ps=0u W=1 L=0.5
X109 VDD net1 VBE VDD sky130_fd_pr__pfet_g5v0d10v5 ad=0p pd=0u as=0p ps=0u W=1 L=0.5
X110 VDD net1 net1 VDD sky130_fd_pr__pfet_g5v0d10v5 ad=0p pd=0u as=0p ps=0u W=1 L=0.5
XQ111 GND GND net2 sky130_fd_pr__pnp_05v5_W0p68L0p68 m=1  
X112 Iref net1 VDD VDD sky130_fd_pr__pfet_g5v0d10v5 ad=0p pd=0u as=0p ps=0u W=1 L=0.5
X113 VDD net1 VBE VDD sky130_fd_pr__pfet_g5v0d10v5 ad=0p pd=0u as=0p ps=0u W=1 L=0.5
X114 VDD net1 Iref VDD sky130_fd_pr__pfet_g5v0d10v5 ad=0p pd=0u as=0p ps=0u W=1 L=0.5
X115 VDD net1 VBE VDD sky130_fd_pr__pfet_g5v0d10v5 ad=0p pd=0u as=0p ps=0u W=1 L=0.5
X116 Iref net1 VDD VDD sky130_fd_pr__pfet_g5v0d10v5 ad=0p pd=0u as=0p ps=0u W=1 L=0.5
X117 net3 net1 VDD VDD sky130_fd_pr__pfet_g5v0d10v5 ad=0p pd=0u as=0p ps=0u W=1 L=0.5
X118 VDD net1 net1 VDD sky130_fd_pr__pfet_g5v0d10v5 ad=0p pd=0u as=0p ps=0u W=1 L=0.5
X119 VBE net1 VDD VDD sky130_fd_pr__pfet_g5v0d10v5 ad=0p pd=0u as=0p ps=0u W=1 L=0.5
X120 VDD net1 net3 VDD sky130_fd_pr__pfet_g5v0d10v5 ad=0p pd=0u as=0p ps=0u W=1 L=0.5
X121 Iref net1 VDD VDD sky130_fd_pr__pfet_g5v0d10v5 ad=0p pd=0u as=0p ps=0u W=1 L=0.5
X122 VDD net1 Iref VDD sky130_fd_pr__pfet_g5v0d10v5 ad=0p pd=0u as=0p ps=0u W=1 L=0.5
XQ123 GND GND net2 sky130_fd_pr__pnp_05v5_W0p68L0p68 m=1  
X124 VDD net1 Iref VDD sky130_fd_pr__pfet_g5v0d10v5 ad=0p pd=0u as=0p ps=0u W=1 L=0.5
X125 net3 net1 VDD VDD sky130_fd_pr__pfet_g5v0d10v5 ad=0p pd=0u as=0p ps=0u W=1 L=0.5
X126 net1 net6 GND GND sky130_fd_pr__nfet_g5v0d10v5 ad=0p pd=0u as=0p ps=0u W=0.42 L=0.5
X127 VDD net1 VBE VDD sky130_fd_pr__pfet_g5v0d10v5 ad=0p pd=0u as=0p ps=0u W=1 L=0.5
X128 VDD net1 Iref VDD sky130_fd_pr__pfet_g5v0d10v5 ad=0p pd=0u as=0p ps=0u W=1 L=0.5
X129 net3 net1 VDD VDD sky130_fd_pr__pfet_g5v0d10v5 ad=0p pd=0u as=0p ps=0u W=1 L=0.5
X130 VDD net1 Iref VDD sky130_fd_pr__pfet_g5v0d10v5 ad=0p pd=0u as=0p ps=0u W=1 L=0.5
X131 VDD net1 Iref VDD sky130_fd_pr__pfet_g5v0d10v5 ad=0p pd=0u as=0p ps=0u W=1 L=0.5
X132 VDD net1 net3 VDD sky130_fd_pr__pfet_g5v0d10v5 ad=0p pd=0u as=0p ps=0u W=1 L=0.5
X133 Iref net1 VDD VDD sky130_fd_pr__pfet_g5v0d10v5 ad=0p pd=0u as=0p ps=0u W=1 L=0.5
X134 GND GND net2 sky130_fd_pr__pnp_05v5_W0p68L0p68 m=1  
X135 net1 net1 VDD VDD sky130_fd_pr__pfet_g5v0d10v5 ad=0p pd=0u as=0p ps=0u W=1 L=0.5
X136 VDD net1 Iref VDD sky130_fd_pr__pfet_g5v0d10v5 ad=0p pd=0u as=0p ps=0u W=1 L=0.5
X137 VDD net1 Iref VDD sky130_fd_pr__pfet_g5v0d10v5 ad=0p pd=0u as=0p ps=0u W=1 L=0.5
X138 net1 net1 VDD VDD sky130_fd_pr__pfet_g5v0d10v5 ad=0p pd=0u as=0p ps=0u W=1 L=0.5
X139 net1 net1 VDD VDD sky130_fd_pr__pfet_g5v0d10v5 ad=0p pd=0u as=0p ps=0u W=1 L=0.5
X140 VBE net7 VDD VDD sky130_fd_pr__pfet_g5v0d10v5 ad=0p pd=0u as=0p ps=0u W=2e+01 L=1e
X141 GND GND net2 sky130_fd_pr__pnp_05v5_W0p68L0p68 m=1  
X142 VDD net1 Iref VDD sky130_fd_pr__pfet_g5v0d10v5 ad=0p pd=0u as=0p ps=0u W=1 L=0.5
X143 net1 net6 GND GND sky130_fd_pr__nfet_g5v0d10v5 ad=0p pd=0u as=0p ps=0u W=0.42 L=0.5
X144 Iref net1 VDD VDD sky130_fd_pr__pfet_g5v0d10v5 ad=0p pd=0u as=0p ps=0u W=1 L=0.5
X145 VDD net1 Iref VDD sky130_fd_pr__pfet_g5v0d10v5 ad=0p pd=0u as=0p ps=0u W=1 L=0.5
X146 GND net4 net6 GND sky130_fd_pr__nfet_g5v0d10v5 ad=0p pd=0u as=0p ps=0u W=0.42 L=0.5
X147 Iref net1 VDD VDD sky130_fd_pr__pfet_g5v0d10v5 ad=0p pd=0u as=0p ps=0u W=1 L=0.5
X148 Iref net1 VDD VDD sky130_fd_pr__pfet_g5v0d10v5 ad=0p pd=0u as=0p ps=0u W=1 L=0.5
X149 net6 net3 net5 VDD sky130_fd_pr__pfet_g5v0d10v5 ad=1.74e+13p pd=1.2232e+08u as=0p ps=0u W=1.5e+01 L=0.5
X150 Iref net1 VDD VDD sky130_fd_pr__pfet_g5v0d10v5 ad=0p pd=0u as=0p ps=0u W=1 L=0.5
X151 VDD net1 net1 VDD sky130_fd_pr__pfet_g5v0d10v5 ad=0p pd=0u as=0p ps=0u W=1 L=0.5
X152 Iref net1 VDD VDD sky130_fd_pr__pfet_g5v0d10v5 ad=0p pd=0u as=0p ps=0u W=1 L=0.5
X153 Iref net1 VDD VDD sky130_fd_pr__pfet_g5v0d10v5 ad=0p pd=0u as=0p ps=0u W=1 L=0.5
X154 Iref net1 VDD VDD sky130_fd_pr__pfet_g5v0d10v5 ad=0p pd=0u as=0p ps=0u W=1 L=0.5
X155 VDD net1 Iref VDD sky130_fd_pr__pfet_g5v0d10v5 ad=0p pd=0u as=0p ps=0u W=1 L=0.5
X156 VDD net1 net1 VDD sky130_fd_pr__pfet_g5v0d10v5 ad=0p pd=0u as=0p ps=0u W=1 L=0.5
X157 Iref net1 VDD VDD sky130_fd_pr__pfet_g5v0d10v5 ad=0p pd=0u as=0p ps=0u W=1 L=0.5
X158 GND GND VBE sky130_fd_pr__pnp_05v5_W0p68L0p68 m=1  
X159 Iref net1 VDD VDD sky130_fd_pr__pfet_g5v0d10v5 ad=0p pd=0u as=0p ps=0u W=1 L=0.5
X160 Iref net1 VDD VDD sky130_fd_pr__pfet_g5v0d10v5 ad=0p pd=0u as=0p ps=0u W=1 L=0.5
X161 Iref net1 VDD VDD sky130_fd_pr__pfet_g5v0d10v5 ad=0p pd=0u as=0p ps=0u W=1 L=0.5
X162 net1 net1 VDD VDD sky130_fd_pr__pfet_g5v0d10v5 ad=0p pd=0u as=0p ps=0u W=1 L=0.5
X163 VDD net1 net1 VDD sky130_fd_pr__pfet_g5v0d10v5 ad=0p pd=0u as=0p ps=0u W=1 L=0.5
X164 Iref net1 VDD VDD sky130_fd_pr__pfet_g5v0d10v5 ad=0p pd=0u as=0p ps=0u W=1 L=0.5
X165 Iref net1 VDD VDD sky130_fd_pr__pfet_g5v0d10v5 ad=0p pd=0u as=0p ps=0u W=1 L=0.5
X166 VDD net1 Iref VDD sky130_fd_pr__pfet_g5v0d10v5 ad=0p pd=0u as=0p ps=0u W=1 L=0.5
X167 VDD net1 Iref VDD sky130_fd_pr__pfet_g5v0d10v5 ad=0p pd=0u as=0p ps=0u W=1 L=0.5
X168 Iref net1 VDD VDD sky130_fd_pr__pfet_g5v0d10v5 ad=0p pd=0u as=0p ps=0u W=1 L=0.5
X169 net1 net1 VDD VDD sky130_fd_pr__pfet_g5v0d10v5 ad=0p pd=0u as=0p ps=0u W=1 L=0.5
X170 Iref net1 VDD VDD sky130_fd_pr__pfet_g5v0d10v5 ad=0p pd=0u as=0p ps=0u W=1 L=0.5
X171 GND GND net2 sky130_fd_pr__pnp_05v5_W0p68L0p68 m=1  
X172 net6 net3 net5 VDD sky130_fd_pr__pfet_g5v0d10v5 ad=0p pd=0u as=0p ps=0u W=1.5e+01 L=0.5
X173 VDD net1 Iref VDD sky130_fd_pr__pfet_g5v0d10v5 ad=0p pd=0u as=0p ps=0u W=1 L=0.5
X174 net5 net1 VDD VDD sky130_fd_pr__pfet_g5v0d10v5 ad=0p pd=0u as=0p ps=0u W=1 L=0.5
X175 VDD net1 Iref VDD sky130_fd_pr__pfet_g5v0d10v5 ad=0p pd=0u as=0p ps=0u W=1 L=0.5
X176 Iref net1 VDD VDD sky130_fd_pr__pfet_g5v0d10v5 ad=0p pd=0u as=0p ps=0u W=1 L=0.5
X177 VDD net1 Iref VDD sky130_fd_pr__pfet_g5v0d10v5 ad=0p pd=0u as=0p ps=0u W=1 L=0.5
X178 a_6508_n16493# a_5374_n14061# GND sky130_fd_pr__res_xhigh_po W=1.41 L=1e+01
X179 VDD net1 Iref VDD sky130_fd_pr__pfet_g5v0d10v5 ad=0p pd=0u as=0p ps=0u W=1 L=0.5
X180 VDD net1 Iref VDD sky130_fd_pr__pfet_g5v0d10v5 ad=0p pd=0u as=0p ps=0u W=1 L=0.5
X181 GND GND GND sky130_fd_pr__res_xhigh_po W=1.41 L=1e+01
X182 net4 net4 GND GND sky130_fd_pr__nfet_g5v0d10v5 ad=0p pd=0u as=0p ps=0u W=0.42 L=0.5
X183 VDD net1 Iref VDD sky130_fd_pr__pfet_g5v0d10v5 ad=0p pd=0u as=0p ps=0u W=1 L=0.5
X184 VDD net1 net1 VDD sky130_fd_pr__pfet_g5v0d10v5 ad=0p pd=0u as=0p ps=0u W=1 L=0.5
X185 VDD net1 Iref VDD sky130_fd_pr__pfet_g5v0d10v5 ad=0p pd=0u as=0p ps=0u W=1 L=0.5
X186 Iref net1 VDD VDD sky130_fd_pr__pfet_g5v0d10v5 ad=0p pd=0u as=0p ps=0u W=1 L=0.5
X187 VDD net1 net1 VDD sky130_fd_pr__pfet_g5v0d10v5 ad=0p pd=0u as=0p ps=0u W=1 L=0.5
X188 Iref net1 VDD VDD sky130_fd_pr__pfet_g5v0d10v5 ad=0p pd=0u as=0p ps=0u W=1 L=0.5
X189 VDD net1 Iref VDD sky130_fd_pr__pfet_g5v0d10v5 ad=0p pd=0u as=0p ps=0u W=1 L=0.5
X190 VDD net1 Iref VDD sky130_fd_pr__pfet_g5v0d10v5 ad=0p pd=0u as=0p ps=0u W=1 L=0.5
X191 VDD net1 net5 VDD sky130_fd_pr__pfet_g5v0d10v5 ad=0p pd=0u as=0p ps=0u W=1 L=0.5
X192 net3 net1 VDD VDD sky130_fd_pr__pfet_g5v0d10v5 ad=0p pd=0u as=0p ps=0u W=1 L=0.5
X193 VBE net1 VDD VDD sky130_fd_pr__pfet_g5v0d10v5 ad=0p pd=0u as=0p ps=0u W=1 L=0.5
X194 Iref net1 VDD VDD sky130_fd_pr__pfet_g5v0d10v5 ad=0p pd=0u as=0p ps=0u W=1 L=0.5
X195 net5 VBE net4 VDD sky130_fd_pr__pfet_g5v0d10v5 ad=0p pd=0u as=0p ps=0u W=1.5e+01 L=0.5
X196 Iref net1 VDD VDD sky130_fd_pr__pfet_g5v0d10v5 ad=0p pd=0u as=0p ps=0u W=1 L=0.5
X197 VDD net1 Iref VDD sky130_fd_pr__pfet_g5v0d10v5 ad=0p pd=0u as=0p ps=0u W=1 L=0.5
X198 VDD net1 net1 VDD sky130_fd_pr__pfet_g5v0d10v5 ad=0p pd=0u as=0p ps=0u W=1 L=0.5
X199 VDD net1 Iref VDD sky130_fd_pr__pfet_g5v0d10v5 ad=0p pd=0u as=0p ps=0u W=1 L=0.5
X200 VDD net1 Iref VDD sky130_fd_pr__pfet_g5v0d10v5 ad=0p pd=0u as=0p ps=0u W=1 L=0.5
X201 Iref net1 VDD VDD sky130_fd_pr__pfet_g5v0d10v5 ad=0p pd=0u as=0p ps=0u W=1 L=0.5
X202 VDD net1 net1 VDD sky130_fd_pr__pfet_g5v0d10v5 ad=0p pd=0u as=0p ps=0u W=1 L=0.5
X203 net5 net3 net6 VDD sky130_fd_pr__pfet_g5v0d10v5 ad=0p pd=0u as=0p ps=0u W=1.5e+01 L=0.5
X204 VDD net1 Iref VDD sky130_fd_pr__pfet_g5v0d10v5 ad=0p pd=0u as=0p ps=0u W=1 L=0.5
X205 VDD net1 VBE VDD sky130_fd_pr__pfet_g5v0d10v5 ad=0p pd=0u as=0p ps=0u W=1 L=0.5
X206 net1 net6 GND GND sky130_fd_pr__nfet_g5v0d10v5 ad=0p pd=0u as=0p ps=0u W=0.42 L=0.5
X207 VDD net1 net3 VDD sky130_fd_pr__pfet_g5v0d10v5 ad=0p pd=0u as=0p ps=0u W=1 L=0.5
X208 VDD net1 VBE VDD sky130_fd_pr__pfet_g5v0d10v5 ad=0p pd=0u as=0p ps=0u W=1 L=0.5
X209 net1 net1 VDD VDD sky130_fd_pr__pfet_g5v0d10v5 ad=0p pd=0u as=0p ps=0u W=1 L=0.5
X210 VDD net1 Iref VDD sky130_fd_pr__pfet_g5v0d10v5 ad=0p pd=0u as=0p ps=0u W=1 L=0.5
X211 Iref net1 VDD VDD sky130_fd_pr__pfet_g5v0d10v5 ad=0p pd=0u as=0p ps=0u W=1 L=0.5
X212 VDD net1 Iref VDD sky130_fd_pr__pfet_g5v0d10v5 ad=0p pd=0u as=0p ps=0u W=1 L=0.5
X213 VDD net1 Iref VDD sky130_fd_pr__pfet_g5v0d10v5 ad=0p pd=0u as=0p ps=0u W=1 L=0.5
X214 Iref net1 VDD VDD sky130_fd_pr__pfet_g5v0d10v5 ad=0p pd=0u as=0p ps=0u W=1 L=0.5
X215 VDD net1 Iref VDD sky130_fd_pr__pfet_g5v0d10v5 ad=0p pd=0u as=0p ps=0u W=1 L=0.5
X216 VDD net1 net1 VDD sky130_fd_pr__pfet_g5v0d10v5 ad=0p pd=0u as=0p ps=0u W=1 L=0.5
X217 net3 net1 VDD VDD sky130_fd_pr__pfet_g5v0d10v5 ad=0p pd=0u as=0p ps=0u W=1 L=0.5
X218 Iref net1 VDD VDD sky130_fd_pr__pfet_g5v0d10v5 ad=0p pd=0u as=0p ps=0u W=1 L=0.5
X219 VDD net1 net1 VDD sky130_fd_pr__pfet_g5v0d10v5 ad=0p pd=0u as=0p ps=0u W=1 L=0.5
X220 Iref net1 VDD VDD sky130_fd_pr__pfet_g5v0d10v5 ad=0p pd=0u as=0p ps=0u W=1 L=0.5
X221 VDD net1 Iref VDD sky130_fd_pr__pfet_g5v0d10v5 ad=0p pd=0u as=0p ps=0u W=1 L=0.5
X222 VDD net1 net1 VDD sky130_fd_pr__pfet_g5v0d10v5 ad=0p pd=0u as=0p ps=0u W=1 L=0.5
X223 a_4996_n16493# a_5374_n14061# GND sky130_fd_pr__res_xhigh_po W=1.41 L=1e+01
X224 a_4996_n16493# a_3862_n14061# GND sky130_fd_pr__res_xhigh_po W=1.41 L=1e+01
X225 GND GND net2 sky130_fd_pr__pnp_05v5_W0p68L0p68 m=1  
X226 VDD net1 net3 VDD sky130_fd_pr__pfet_g5v0d10v5 ad=0p pd=0u as=0p ps=0u W=1 L=0.5
X227 net5 net1 VDD VDD sky130_fd_pr__pfet_g5v0d10v5 ad=0p pd=0u as=0p ps=0u W=1 L=0.5
X228 net1 net1 VDD VDD sky130_fd_pr__pfet_g5v0d10v5 ad=0p pd=0u as=0p ps=0u W=1 L=0.5
X229 net3 net1 VDD VDD sky130_fd_pr__pfet_g5v0d10v5 ad=0p pd=0u as=0p ps=0u W=1 L=0.5
X230 VDD net1 Iref VDD sky130_fd_pr__pfet_g5v0d10v5 ad=0p pd=0u as=0p ps=0u W=1 L=0.5
X231 VDD net1 Iref VDD sky130_fd_pr__pfet_g5v0d10v5 ad=0p pd=0u as=0p ps=0u W=1 L=0.5
X232 Iref net1 VDD VDD sky130_fd_pr__pfet_g5v0d10v5 ad=0p pd=0u as=0p ps=0u W=1 L=0.5
X233 net1 net1 VDD VDD sky130_fd_pr__pfet_g5v0d10v5 ad=0p pd=0u as=0p ps=0u W=1 L=0.5
X234 Iref net1 VDD VDD sky130_fd_pr__pfet_g5v0d10v5 ad=0p pd=0u as=0p ps=0u W=1 L=0.5
X235 Iref net1 VDD VDD sky130_fd_pr__pfet_g5v0d10v5 ad=0p pd=0u as=0p ps=0u W=1 L=0.5
X236 VDD net1 Iref VDD sky130_fd_pr__pfet_g5v0d10v5 ad=0p pd=0u as=0p ps=0u W=1 L=0.5
X237 a_8776_n16493# a_7642_n14061# GND sky130_fd_pr__res_xhigh_po W=1.41 L=1e+01
X238 Iref net1 VDD VDD sky130_fd_pr__pfet_g5v0d10v5 ad=0p pd=0u as=0p ps=0u W=1 L=0.5
X239 VDD net1 Iref VDD sky130_fd_pr__pfet_g5v0d10v5 ad=0p pd=0u as=0p ps=0u W=1 L=0.5
X240 VDD net1 Iref VDD sky130_fd_pr__pfet_g5v0d10v5 ad=0p pd=0u as=0p ps=0u W=1 L=0.5
X241 VBE net1 VDD VDD sky130_fd_pr__pfet_g5v0d10v5 ad=0p pd=0u as=0p ps=0u W=1 L=0.5
X242 Iref net1 VDD VDD sky130_fd_pr__pfet_g5v0d10v5 ad=0p pd=0u as=0p ps=0u W=1 L=0.5
X243 a_8776_n16493# GND GND sky130_fd_pr__res_xhigh_po W=1.41 L=1e+01
X244 net4 net4 GND GND sky130_fd_pr__nfet_g5v0d10v5 ad=0p pd=0u as=0p ps=0u W=0.42 L=0.5
X245 GND GND net2 sky130_fd_pr__pnp_05v5_W0p68L0p68 m=1  
X246 VBE net1 VDD VDD sky130_fd_pr__pfet_g5v0d10v5 ad=0p pd=0u as=0p ps=0u W=1 L=0.5
X247 Iref net1 VDD VDD sky130_fd_pr__pfet_g5v0d10v5 ad=0p pd=0u as=0p ps=0u W=1 L=0.5
X248 Iref net1 VDD VDD sky130_fd_pr__pfet_g5v0d10v5 ad=0p pd=0u as=0p ps=0u W=1 L=0.5
X249 GND net1 net7 GND sky130_fd_pr__nfet_g5v0d10v5 ad=0p pd=0u as=1.218e+11p ps=1.42e+06u W=0.42 L=2e+01
X250 Iref net1 VDD VDD sky130_fd_pr__pfet_g5v0d10v5 ad=0p pd=0u as=0p ps=0u W=1 L=0.5
X251 Iref net1 VDD VDD sky130_fd_pr__pfet_g5v0d10v5 ad=0p pd=0u as=0p ps=0u W=1 L=0.5
X252 net3 a_3862_n14061# GND sky130_fd_pr__res_xhigh_po W=1.41 L=1e+01
X253 VDD net1 net3 VDD sky130_fd_pr__pfet_g5v0d10v5 ad=0p pd=0u as=0p ps=0u W=1 L=0.5
X254 VDD net1 net5 VDD sky130_fd_pr__pfet_g5v0d10v5 ad=0p pd=0u as=0p ps=0u W=1 L=0.5
X255 Iref net1 VDD VDD sky130_fd_pr__pfet_g5v0d10v5 ad=0p pd=0u as=0p ps=0u W=1 L=0.5
X256 GND GND GND sky130_fd_pr__res_xhigh_po W=1.41 L=1e+01
X257 Iref net1 VDD VDD sky130_fd_pr__pfet_g5v0d10v5 ad=0p pd=0u as=0p ps=0u W=1 L=0.5
X258 VDD net1 net1 VDD sky130_fd_pr__pfet_g5v0d10v5 ad=0p pd=0u as=0p ps=0u W=1 L=0.5
X259 net5 net3 net6 VDD sky130_fd_pr__pfet_g5v0d10v5 ad=0p pd=0u as=0p ps=0u W=1.5e+01 L=0.5
X260 VDD net1 Iref VDD sky130_fd_pr__pfet_g5v0d10v5 ad=0p pd=0u as=0p ps=0u W=1 L=0.5
X261 Iref net1 VDD VDD sky130_fd_pr__pfet_g5v0d10v5 ad=0p pd=0u as=0p ps=0u W=1 L=0.5
X262 VDD net1 Iref VDD sky130_fd_pr__pfet_g5v0d10v5 ad=0p pd=0u as=0p ps=0u W=1 L=0.5
X263 GND GND net2 sky130_fd_pr__pnp_05v5_W0p68L0p68 m=1  
X264 net1 net1 VDD VDD sky130_fd_pr__pfet_g5v0d10v5 ad=0p pd=0u as=0p ps=0u W=1 L=0.5
X265 VDD net1 Iref VDD sky130_fd_pr__pfet_g5v0d10v5 ad=0p pd=0u as=0p ps=0u W=1 L=0.5
X266 net6 net3 net5 VDD sky130_fd_pr__pfet_g5v0d10v5 ad=0p pd=0u as=0p ps=0u W=1.5e+01 L=0.5
X267 Iref net1 VDD VDD sky130_fd_pr__pfet_g5v0d10v5 ad=0p pd=0u as=0p ps=0u W=1 L=0.5
X268 VDD net1 VBE VDD sky130_fd_pr__pfet_g5v0d10v5 ad=0p pd=0u as=0p ps=0u W=1 L=0.5
X269 net1 net1 VDD VDD sky130_fd_pr__pfet_g5v0d10v5 ad=0p pd=0u as=0p ps=0u W=1 L=0.5
X270 a_6508_n16493# a_7642_n14061# GND sky130_fd_pr__res_xhigh_po W=1.41 L=1e+01
X271 VDD net1 Iref VDD sky130_fd_pr__pfet_g5v0d10v5 ad=0p pd=0u as=0p ps=0u W=1 L=0.5
X272 VDD net1 Iref VDD sky130_fd_pr__pfet_g5v0d10v5 ad=0p pd=0u as=0p ps=0u W=1 L=0.5
X273 VDD net1 Iref VDD sky130_fd_pr__pfet_g5v0d10v5 ad=0p pd=0u as=0p ps=0u W=1 L=0.5
X274 Iref net1 VDD VDD sky130_fd_pr__pfet_g5v0d10v5 ad=0p pd=0u as=0p ps=0u W=1 L=0.5
X275 VDD net1 Iref VDD sky130_fd_pr__pfet_g5v0d10v5 ad=0p pd=0u as=0p ps=0u W=1 L=0.5
X276 a_8020_n16493# a_6130_n14061# GND sky130_fd_pr__res_xhigh_po W=1.41 L=1e+01
X277 VDD net1 Iref VDD sky130_fd_pr__pfet_g5v0d10v5 ad=0p pd=0u as=0p ps=0u W=1 L=0.5
X278 Iref net1 VDD VDD sky130_fd_pr__pfet_g5v0d10v5 ad=0p pd=0u as=0p ps=0u W=1 L=0.5
X279 VDD net1 Iref VDD sky130_fd_pr__pfet_g5v0d10v5 ad=0p pd=0u as=0p ps=0u W=1 L=0.5
X280 VDD net1 Iref VDD sky130_fd_pr__pfet_g5v0d10v5 ad=0p pd=0u as=0p ps=0u W=1 L=0.5
X281 VDD net1 Iref VDD sky130_fd_pr__pfet_g5v0d10v5 ad=0p pd=0u as=0p ps=0u W=1 L=0.5
X282 Iref net1 VDD VDD sky130_fd_pr__pfet_g5v0d10v5 ad=0p pd=0u as=0p ps=0u W=1 L=0.5
X283 Iref net1 VDD VDD sky130_fd_pr__pfet_g5v0d10v5 ad=0p pd=0u as=0p ps=0u W=1 L=0.5
X284 VDD net1 Iref VDD sky130_fd_pr__pfet_g5v0d10v5 ad=0p pd=0u as=0p ps=0u W=1 L=0.5
X285 VDD net1 net1 VDD sky130_fd_pr__pfet_g5v0d10v5 ad=0p pd=0u as=0p ps=0u W=1 L=0.5
X286 VDD net1 Iref VDD sky130_fd_pr__pfet_g5v0d10v5 ad=0p pd=0u as=0p ps=0u W=1 L=0.5
X287 VDD net1 Iref VDD sky130_fd_pr__pfet_g5v0d10v5 ad=0p pd=0u as=0p ps=0u W=1 L=0.5
X288 Iref net1 VDD VDD sky130_fd_pr__pfet_g5v0d10v5 ad=0p pd=0u as=0p ps=0u W=1 L=0.5
X289 VDD net1 net1 VDD sky130_fd_pr__pfet_g5v0d10v5 ad=0p pd=0u as=0p ps=0u W=1 L=0.5
X290 net7 net1 VDD VDD sky130_fd_pr__pfet_g5v0d10v5 ad=1.16e+13p pd=8.116e+07u as=0p ps=0u W=2e+01 L=1
X291 net1 net6 GND GND sky130_fd_pr__nfet_g5v0d10v5 ad=0p pd=0u as=0p ps=0u W=0.42 L=0.5
X292 Iref net1 VDD VDD sky130_fd_pr__pfet_g5v0d10v5 ad=0p pd=0u as=0p ps=0u W=1 L=0.5
X293 Iref net1 VDD VDD sky130_fd_pr__pfet_g5v0d10v5 ad=0p pd=0u as=0p ps=0u W=1 L=0.5
X294 Iref net1 VDD VDD sky130_fd_pr__pfet_g5v0d10v5 ad=0p pd=0u as=0p ps=0u W=1 L=0.5
X295 Iref net1 VDD VDD sky130_fd_pr__pfet_g5v0d10v5 ad=0p pd=0u as=0p ps=0u W=1 L=0.5
X296 VDD net1 Iref VDD sky130_fd_pr__pfet_g5v0d10v5 ad=0p pd=0u as=0p ps=0u W=1 L=0.5
X297 net1 net1 VDD VDD sky130_fd_pr__pfet_g5v0d10v5 ad=0p pd=0u as=0p ps=0u W=1 L=0.5
X298 Iref net1 VDD VDD sky130_fd_pr__pfet_g5v0d10v5 ad=0p pd=0u as=0p ps=0u W=1 L=0.5
X299 Iref net1 VDD VDD sky130_fd_pr__pfet_g5v0d10v5 ad=0p pd=0u as=0p ps=0u W=1 L=0.5
X300 VDD net1 Iref VDD sky130_fd_pr__pfet_g5v0d10v5 ad=0p pd=0u as=0p ps=0u W=1 L=0.5
X301 Iref net1 VDD VDD sky130_fd_pr__pfet_g5v0d10v5 ad=0p pd=0u as=0p ps=0u W=1 L=0.5
X302 Iref net1 VDD VDD sky130_fd_pr__pfet_g5v0d10v5 ad=0p pd=0u as=0p ps=0u W=1 L=0.5
X303 VDD net1 Iref VDD sky130_fd_pr__pfet_g5v0d10v5 ad=0p pd=0u as=0p ps=0u W=1 L=0.5
X304 VDD net1 Iref VDD sky130_fd_pr__pfet_g5v0d10v5 ad=0p pd=0u as=0p ps=0u W=1 L=0.5
X305 VDD net1 net7 VDD sky130_fd_pr__pfet_g5v0d10v5 ad=0p pd=0u as=0p ps=0u W=2e+01 L=1
X306 Iref net1 VDD VDD sky130_fd_pr__pfet_g5v0d10v5 ad=0p pd=0u as=0p ps=0u W=1 L=0.5
X307 a_9532_n16493# GND GND sky130_fd_pr__res_xhigh_po W=1.41 L=1e+01
X308 VDD net1 Iref VDD sky130_fd_pr__pfet_g5v0d10v5 ad=0p pd=0u as=0p ps=0u W=1 L=0.5
X309 net5 net3 net6 VDD sky130_fd_pr__pfet_g5v0d10v5 ad=0p pd=0u as=0p ps=0u W=1.5e+01 L=0.5
X310 Iref net1 VDD VDD sky130_fd_pr__pfet_g5v0d10v5 ad=0p pd=0u as=0p ps=0u W=1 L=0.5
X311 VDD net1 Iref VDD sky130_fd_pr__pfet_g5v0d10v5 ad=0p pd=0u as=0p ps=0u W=1 L=0.5
X312 Iref net1 VDD VDD sky130_fd_pr__pfet_g5v0d10v5 ad=0p pd=0u as=0p ps=0u W=1 L=0.5
X313 VDD net1 Iref VDD sky130_fd_pr__pfet_g5v0d10v5 ad=0p pd=0u as=0p ps=0u W=1 L=0.5
X314 VDD net1 Iref VDD sky130_fd_pr__pfet_g5v0d10v5 ad=0p pd=0u as=0p ps=0u W=1 L=0.5
X315 VDD net1 net1 VDD sky130_fd_pr__pfet_g5v0d10v5 ad=0p pd=0u as=0p ps=0u W=1 L=0.5
X316 net3 net1 VDD VDD sky130_fd_pr__pfet_g5v0d10v5 ad=0p pd=0u as=0p ps=0u W=1 L=0.5
X317 Iref net1 VDD VDD sky130_fd_pr__pfet_g5v0d10v5 ad=0p pd=0u as=0p ps=0u W=1 L=0.5
X318 net1 net6 GND GND sky130_fd_pr__nfet_g5v0d10v5 ad=0p pd=0u as=0p ps=0u W=0.42 L=0.5
X319 Iref net1 VDD VDD sky130_fd_pr__pfet_g5v0d10v5 ad=0p pd=0u as=0p ps=0u W=1 L=0.5
X320 Iref net1 VDD VDD sky130_fd_pr__pfet_g5v0d10v5 ad=0p pd=0u as=0p ps=0u W=1 L=0.5
X321 VDD net1 Iref VDD sky130_fd_pr__pfet_g5v0d10v5 ad=0p pd=0u as=0p ps=0u W=1 L=0.5
X322 VBE net1 VDD VDD sky130_fd_pr__pfet_g5v0d10v5 ad=0p pd=0u as=0p ps=0u W=1 L=0.5
X323 Iref net1 VDD VDD sky130_fd_pr__pfet_g5v0d10v5 ad=0p pd=0u as=0p ps=0u W=1 L=0.5
X324 net1 net1 VDD VDD sky130_fd_pr__pfet_g5v0d10v5 ad=0p pd=0u as=0p ps=0u W=1 L=0.5
X325 GND net4 net6 GND sky130_fd_pr__nfet_g5v0d10v5 ad=0p pd=0u as=0p ps=0u W=0.42 L=0.5
X326 VDD net1 Iref VDD sky130_fd_pr__pfet_g5v0d10v5 ad=0p pd=0u as=0p ps=0u W=1 L=0.5
X327 VDD net1 net3 VDD sky130_fd_pr__pfet_g5v0d10v5 ad=0p pd=0u as=0p ps=0u W=1 L=0.5
X328 VBE net1 VDD VDD sky130_fd_pr__pfet_g5v0d10v5 ad=0p pd=0u as=0p ps=0u W=1 L=0.5
X329 VBE net1 VDD VDD sky130_fd_pr__pfet_g5v0d10v5 ad=0p pd=0u as=0p ps=0u W=1 L=0.5
X330 VDD net1 Iref VDD sky130_fd_pr__pfet_g5v0d10v5 ad=0p pd=0u as=0p ps=0u W=1 L=0.5
X331 VDD net1 VBE VDD sky130_fd_pr__pfet_g5v0d10v5 ad=0p pd=0u as=0p ps=0u W=1 L=0.5
X332 net3 net1 VDD VDD sky130_fd_pr__pfet_g5v0d10v5 ad=0p pd=0u as=0p ps=0u W=1 L=0.5
X333 VDD net1 Iref VDD sky130_fd_pr__pfet_g5v0d10v5 ad=0p pd=0u as=0p ps=0u W=1 L=0.5
X334 net6 net4 GND GND sky130_fd_pr__nfet_g5v0d10v5 ad=0p pd=0u as=0p ps=0u W=0.42 L=0.5
X335 GND net4 net4 GND sky130_fd_pr__nfet_g5v0d10v5 ad=0p pd=0u as=0p ps=0u W=0.42 L=0.5
X336 VDD net1 Iref VDD sky130_fd_pr__pfet_g5v0d10v5 ad=0p pd=0u as=0p ps=0u W=1 L=0.5
X337 net1 net6 GND GND sky130_fd_pr__nfet_g5v0d10v5 ad=0p pd=0u as=0p ps=0u W=0.42 L=0.5
X338 Iref net1 VDD VDD sky130_fd_pr__pfet_g5v0d10v5 ad=0p pd=0u as=0p ps=0u W=1 L=0.5
X339 VDD net1 Iref VDD sky130_fd_pr__pfet_g5v0d10v5 ad=0p pd=0u as=0p ps=0u W=1 L=0.5
X340 Iref net1 VDD VDD sky130_fd_pr__pfet_g5v0d10v5 ad=0p pd=0u as=0p ps=0u W=1 L=0.5
X341 VDD net1 VBE VDD sky130_fd_pr__pfet_g5v0d10v5 ad=0p pd=0u as=0p ps=0u W=1 L=0.5
X342 VBE net1 VDD VDD sky130_fd_pr__pfet_g5v0d10v5 ad=0p pd=0u as=0p ps=0u W=1 L=0.5
X343 net1 net1 VDD VDD sky130_fd_pr__pfet_g5v0d10v5 ad=0p pd=0u as=0p ps=0u W=1 L=0.5
X344 VBE a_4618_n14061# GND sky130_fd_pr__res_xhigh_po W=1.41 L=1e+01
X345 Iref net1 VDD VDD sky130_fd_pr__pfet_g5v0d10v5 ad=0p pd=0u as=0p ps=0u W=1 L=0.5
X346 Iref net1 VDD VDD sky130_fd_pr__pfet_g5v0d10v5 ad=0p pd=0u as=0p ps=0u W=1 L=0.5
X347 VDD net1 net3 VDD sky130_fd_pr__pfet_g5v0d10v5 ad=0p pd=0u as=0p ps=0u W=1 L=0.5
X348 VBE net1 VDD VDD sky130_fd_pr__pfet_g5v0d10v5 ad=0p pd=0u as=0p ps=0u W=1 L=0.5
X349 VDD net1 net3 VDD sky130_fd_pr__pfet_g5v0d10v5 ad=0p pd=0u as=0p ps=0u W=1 L=0.5
X350 Iref net1 VDD VDD sky130_fd_pr__pfet_g5v0d10v5 ad=0p pd=0u as=0p ps=0u W=1 L=0.5