* NGSPICE file created from DSM.ext - technology: sky130A

* Black-box entry subcircuit for sky130_fd_sc_hd__tapvpwrvgnd_1 abstract view
.subckt sky130_fd_sc_hd__tapvpwrvgnd_1 VGND VPWR
.ends

* Black-box entry subcircuit for sky130_fd_sc_hd__fill_2 abstract view
.subckt sky130_fd_sc_hd__fill_2 VGND VNB VPB VPWR
.ends

* Black-box entry subcircuit for sky130_fd_sc_hd__fill_1 abstract view
.subckt sky130_fd_sc_hd__fill_1 VGND VNB VPB VPWR
.ends

* Black-box entry subcircuit for sky130_ef_sc_hd__decap_12 abstract view
.subckt sky130_ef_sc_hd__decap_12 VGND VNB VPB VPWR
.ends

* Black-box entry subcircuit for sky130_fd_sc_hd__decap_4 abstract view
.subckt sky130_fd_sc_hd__decap_4 VGND VNB VPB VPWR
.ends

* Black-box entry subcircuit for sky130_fd_sc_hd__decap_6 abstract view
.subckt sky130_fd_sc_hd__decap_6 VGND VNB VPB VPWR
.ends

* Black-box entry subcircuit for sky130_fd_sc_hd__decap_8 abstract view
.subckt sky130_fd_sc_hd__decap_8 VGND VNB VPB VPWR
.ends

* Black-box entry subcircuit for sky130_fd_sc_hd__or2_1 abstract view
.subckt sky130_fd_sc_hd__or2_1 A B VGND VNB VPB VPWR X
.ends

* Black-box entry subcircuit for sky130_fd_sc_hd__nor2_1 abstract view
.subckt sky130_fd_sc_hd__nor2_1 A B VGND VNB VPB VPWR Y
.ends

* Black-box entry subcircuit for sky130_fd_sc_hd__inv_2 abstract view
.subckt sky130_fd_sc_hd__inv_2 A VGND VNB VPB VPWR Y
.ends

* Black-box entry subcircuit for sky130_fd_sc_hd__dfrtp_1 abstract view
.subckt sky130_fd_sc_hd__dfrtp_1 CLK D RESET_B VGND VNB VPB VPWR Q
.ends

* Black-box entry subcircuit for sky130_fd_sc_hd__decap_3 abstract view
.subckt sky130_fd_sc_hd__decap_3 VGND VNB VPB VPWR
.ends

* Black-box entry subcircuit for sky130_fd_sc_hd__nand2_1 abstract view
.subckt sky130_fd_sc_hd__nand2_1 A B VGND VNB VPB VPWR Y
.ends

* Black-box entry subcircuit for sky130_fd_sc_hd__buf_2 abstract view
.subckt sky130_fd_sc_hd__buf_2 A VGND VNB VPB VPWR X
.ends

* Black-box entry subcircuit for sky130_fd_sc_hd__or3_2 abstract view
.subckt sky130_fd_sc_hd__or3_2 A B C VGND VNB VPB VPWR X
.ends

* Black-box entry subcircuit for sky130_fd_sc_hd__clkbuf_1 abstract view
.subckt sky130_fd_sc_hd__clkbuf_1 A VGND VNB VPB VPWR X
.ends

* Black-box entry subcircuit for sky130_fd_sc_hd__and2_1 abstract view
.subckt sky130_fd_sc_hd__and2_1 A B VGND VNB VPB VPWR X
.ends

* Black-box entry subcircuit for sky130_fd_sc_hd__a31oi_4 abstract view
.subckt sky130_fd_sc_hd__a31oi_4 A1 A2 A3 B1 VGND VNB VPB VPWR Y
.ends

* Black-box entry subcircuit for sky130_fd_sc_hd__dfrtp_4 abstract view
.subckt sky130_fd_sc_hd__dfrtp_4 CLK D RESET_B VGND VNB VPB VPWR Q
.ends

* Black-box entry subcircuit for sky130_fd_sc_hd__o211ai_2 abstract view
.subckt sky130_fd_sc_hd__o211ai_2 A1 A2 B1 C1 VGND VNB VPB VPWR Y
.ends

* Black-box entry subcircuit for sky130_fd_sc_hd__xnor2_1 abstract view
.subckt sky130_fd_sc_hd__xnor2_1 A B VGND VNB VPB VPWR Y
.ends

* Black-box entry subcircuit for sky130_fd_sc_hd__nand3_4 abstract view
.subckt sky130_fd_sc_hd__nand3_4 A B C VGND VNB VPB VPWR Y
.ends

* Black-box entry subcircuit for sky130_fd_sc_hd__a21o_1 abstract view
.subckt sky130_fd_sc_hd__a21o_1 A1 A2 B1 VGND VNB VPB VPWR X
.ends

* Black-box entry subcircuit for sky130_fd_sc_hd__dfrtp_2 abstract view
.subckt sky130_fd_sc_hd__dfrtp_2 CLK D RESET_B VGND VNB VPB VPWR Q
.ends

* Black-box entry subcircuit for sky130_fd_sc_hd__xor2_1 abstract view
.subckt sky130_fd_sc_hd__xor2_1 A B VGND VNB VPB VPWR X
.ends

* Black-box entry subcircuit for sky130_fd_sc_hd__o31a_2 abstract view
.subckt sky130_fd_sc_hd__o31a_2 A1 A2 A3 B1 VGND VNB VPB VPWR X
.ends

* Black-box entry subcircuit for sky130_fd_sc_hd__o31a_1 abstract view
.subckt sky130_fd_sc_hd__o31a_1 A1 A2 A3 B1 VGND VNB VPB VPWR X
.ends

* Black-box entry subcircuit for sky130_fd_sc_hd__o311a_1 abstract view
.subckt sky130_fd_sc_hd__o311a_1 A1 A2 A3 B1 C1 VGND VNB VPB VPWR X
.ends

* Black-box entry subcircuit for sky130_fd_sc_hd__a211oi_2 abstract view
.subckt sky130_fd_sc_hd__a211oi_2 A1 A2 B1 C1 VGND VNB VPB VPWR Y
.ends

* Black-box entry subcircuit for sky130_fd_sc_hd__or2b_1 abstract view
.subckt sky130_fd_sc_hd__or2b_1 A B_N VGND VNB VPB VPWR X
.ends

* Black-box entry subcircuit for sky130_fd_sc_hd__clkbuf_2 abstract view
.subckt sky130_fd_sc_hd__clkbuf_2 A VGND VNB VPB VPWR X
.ends

* Black-box entry subcircuit for sky130_fd_sc_hd__o211a_1 abstract view
.subckt sky130_fd_sc_hd__o211a_1 A1 A2 B1 C1 VGND VNB VPB VPWR X
.ends

* Black-box entry subcircuit for sky130_fd_sc_hd__o21ai_1 abstract view
.subckt sky130_fd_sc_hd__o21ai_1 A1 A2 B1 VGND VNB VPB VPWR Y
.ends

* Black-box entry subcircuit for sky130_fd_sc_hd__dlymetal6s2s_1 abstract view
.subckt sky130_fd_sc_hd__dlymetal6s2s_1 A VGND VNB VPB VPWR X
.ends

* Black-box entry subcircuit for sky130_fd_sc_hd__o21bai_2 abstract view
.subckt sky130_fd_sc_hd__o21bai_2 A1 A2 B1_N VGND VNB VPB VPWR Y
.ends

* Black-box entry subcircuit for sky130_fd_sc_hd__buf_4 abstract view
.subckt sky130_fd_sc_hd__buf_4 A VGND VNB VPB VPWR X
.ends

* Black-box entry subcircuit for sky130_fd_sc_hd__clkbuf_4 abstract view
.subckt sky130_fd_sc_hd__clkbuf_4 A VGND VNB VPB VPWR X
.ends

* Black-box entry subcircuit for sky130_fd_sc_hd__and2b_1 abstract view
.subckt sky130_fd_sc_hd__and2b_1 A_N B VGND VNB VPB VPWR X
.ends

* Black-box entry subcircuit for sky130_fd_sc_hd__and3_1 abstract view
.subckt sky130_fd_sc_hd__and3_1 A B C VGND VNB VPB VPWR X
.ends

* Black-box entry subcircuit for sky130_fd_sc_hd__a21oi_4 abstract view
.subckt sky130_fd_sc_hd__a21oi_4 A1 A2 B1 VGND VNB VPB VPWR Y
.ends

* Black-box entry subcircuit for sky130_fd_sc_hd__xor2_2 abstract view
.subckt sky130_fd_sc_hd__xor2_2 A B VGND VNB VPB VPWR X
.ends

* Black-box entry subcircuit for sky130_fd_sc_hd__a21oi_1 abstract view
.subckt sky130_fd_sc_hd__a21oi_1 A1 A2 B1 VGND VNB VPB VPWR Y
.ends

* Black-box entry subcircuit for sky130_fd_sc_hd__xnor2_2 abstract view
.subckt sky130_fd_sc_hd__xnor2_2 A B VGND VNB VPB VPWR Y
.ends

* Black-box entry subcircuit for sky130_fd_sc_hd__a21boi_2 abstract view
.subckt sky130_fd_sc_hd__a21boi_2 A1 A2 B1_N VGND VNB VPB VPWR Y
.ends

* Black-box entry subcircuit for sky130_fd_sc_hd__a31oi_1 abstract view
.subckt sky130_fd_sc_hd__a31oi_1 A1 A2 A3 B1 VGND VNB VPB VPWR Y
.ends

* Black-box entry subcircuit for sky130_fd_sc_hd__xnor2_4 abstract view
.subckt sky130_fd_sc_hd__xnor2_4 A B VGND VNB VPB VPWR Y
.ends

* Black-box entry subcircuit for sky130_fd_sc_hd__o21ai_2 abstract view
.subckt sky130_fd_sc_hd__o21ai_2 A1 A2 B1 VGND VNB VPB VPWR Y
.ends

* Black-box entry subcircuit for sky130_fd_sc_hd__clkinv_2 abstract view
.subckt sky130_fd_sc_hd__clkinv_2 A VGND VNB VPB VPWR Y
.ends

.subckt DSM Clk In_Data[0] In_Data[10] In_Data[11] In_Data[12] In_Data[13] In_Data[14]
+ In_Data[15] In_Data[16] In_Data[17] In_Data[18] In_Data[19] In_Data[1] In_Data[20]
+ In_Data[21] In_Data[22] In_Data[23] In_Data[2] In_Data[3] In_Data[4] In_Data[5]
+ In_Data[6] In_Data[7] In_Data[8] In_Data[9] Out_Data[0] Out_Data[1] Out_Data[2]
+ Out_Data[3] Out_Data[4] VGND VPWR reset
XTAP_199 VGND VPWR sky130_fd_sc_hd__tapvpwrvgnd_1
XTAP_188 VGND VPWR sky130_fd_sc_hd__tapvpwrvgnd_1
XTAP_177 VGND VPWR sky130_fd_sc_hd__tapvpwrvgnd_1
XFILLER_26_85 VGND VGND VPWR VPWR sky130_fd_sc_hd__fill_2
XFILLER_13_166 VGND VGND VPWR VPWR sky130_fd_sc_hd__fill_2
XFILLER_13_111 VGND VGND VPWR VPWR sky130_fd_sc_hd__fill_1
XFILLER_9_137 VGND VGND VPWR VPWR sky130_ef_sc_hd__decap_12
XFILLER_27_225 VGND VGND VPWR VPWR sky130_ef_sc_hd__decap_12
XFILLER_37_51 VGND VGND VPWR VPWR sky130_fd_sc_hd__decap_4
XFILLER_6_129 VGND VGND VPWR VPWR sky130_fd_sc_hd__decap_6
XFILLER_10_114 VGND VGND VPWR VPWR sky130_ef_sc_hd__decap_12
XFILLER_30_209 VGND VGND VPWR VPWR sky130_fd_sc_hd__decap_8
X_200_ _254_/Q _201_/B VGND VGND VPWR VPWR _202_/A sky130_fd_sc_hd__or2_1
X_131_ _263_/Q _256_/Q VGND VGND VPWR VPWR _166_/A sky130_fd_sc_hd__nor2_1
XFILLER_2_121 VGND VGND VPWR VPWR sky130_ef_sc_hd__decap_12
XFILLER_0_57 VGND VGND VPWR VPWR sky130_ef_sc_hd__decap_12
XFILLER_0_46 VGND VGND VPWR VPWR sky130_fd_sc_hd__decap_8
XFILLER_2_165 VGND VGND VPWR VPWR sky130_ef_sc_hd__decap_12
XFILLER_9_55 VGND VGND VPWR VPWR sky130_fd_sc_hd__fill_1
XFILLER_38_139 VGND VGND VPWR VPWR sky130_fd_sc_hd__fill_1
XFILLER_34_85 VGND VGND VPWR VPWR sky130_fd_sc_hd__fill_2
XFILLER_34_41 VGND VGND VPWR VPWR sky130_fd_sc_hd__decap_8
XFILLER_18_97 VGND VGND VPWR VPWR sky130_ef_sc_hd__decap_12
X_114_ _268_/Q _261_/Q VGND VGND VPWR VPWR _177_/A sky130_fd_sc_hd__nor2_1
XFILLER_37_161 VGND VGND VPWR VPWR sky130_fd_sc_hd__decap_6
XFILLER_20_65 VGND VGND VPWR VPWR sky130_ef_sc_hd__decap_12
XFILLER_34_197 VGND VGND VPWR VPWR sky130_ef_sc_hd__decap_12
XFILLER_19_161 VGND VGND VPWR VPWR sky130_fd_sc_hd__decap_6
XFILLER_13_3 VGND VGND VPWR VPWR sky130_ef_sc_hd__decap_12
XFILLER_40_167 VGND VGND VPWR VPWR sky130_fd_sc_hd__fill_1
XFILLER_31_167 VGND VGND VPWR VPWR sky130_fd_sc_hd__fill_1
XFILLER_16_197 VGND VGND VPWR VPWR sky130_fd_sc_hd__decap_6
XFILLER_16_131 VGND VGND VPWR VPWR sky130_fd_sc_hd__decap_8
XFILLER_39_223 VGND VGND VPWR VPWR sky130_fd_sc_hd__fill_1
XTAP_189 VGND VPWR sky130_fd_sc_hd__tapvpwrvgnd_1
XTAP_178 VGND VPWR sky130_fd_sc_hd__tapvpwrvgnd_1
XTAP_167 VGND VPWR sky130_fd_sc_hd__tapvpwrvgnd_1
XTAP_156 VGND VPWR sky130_fd_sc_hd__tapvpwrvgnd_1
XTAP_145 VGND VPWR sky130_fd_sc_hd__tapvpwrvgnd_1
XTAP_134 VGND VPWR sky130_fd_sc_hd__tapvpwrvgnd_1
XTAP_101 VGND VPWR sky130_fd_sc_hd__tapvpwrvgnd_1
XTAP_112 VGND VPWR sky130_fd_sc_hd__tapvpwrvgnd_1
XTAP_123 VGND VPWR sky130_fd_sc_hd__tapvpwrvgnd_1
XFILLER_26_75 VGND VGND VPWR VPWR sky130_fd_sc_hd__decap_4
XFILLER_3_57 VGND VGND VPWR VPWR sky130_ef_sc_hd__decap_12
XFILLER_9_149 VGND VGND VPWR VPWR sky130_ef_sc_hd__decap_12
XFILLER_37_85 VGND VGND VPWR VPWR sky130_fd_sc_hd__fill_1
XFILLER_27_237 VGND VGND VPWR VPWR sky130_fd_sc_hd__decap_4
XFILLER_10_126 VGND VGND VPWR VPWR sky130_ef_sc_hd__decap_12
XFILLER_32_240 VGND VGND VPWR VPWR sky130_fd_sc_hd__fill_1
XFILLER_5_163 VGND VGND VPWR VPWR sky130_fd_sc_hd__decap_4
X_130_ _165_/B VGND VGND VPWR VPWR _130_/Y sky130_fd_sc_hd__inv_2
X_259_ _266_/CLK _259_/D fanout16/X VGND VGND VPWR VPWR _259_/Q sky130_fd_sc_hd__dfrtp_1
XFILLER_2_133 VGND VGND VPWR VPWR sky130_fd_sc_hd__decap_6
XFILLER_0_69 VGND VGND VPWR VPWR sky130_ef_sc_hd__decap_12
XFILLER_2_177 VGND VGND VPWR VPWR sky130_ef_sc_hd__decap_12
XFILLER_20_221 VGND VGND VPWR VPWR sky130_ef_sc_hd__decap_12
XFILLER_11_221 VGND VGND VPWR VPWR sky130_fd_sc_hd__decap_3
XFILLER_7_225 VGND VGND VPWR VPWR sky130_ef_sc_hd__decap_12
X_113_ _113_/A _113_/B VGND VGND VPWR VPWR _178_/A sky130_fd_sc_hd__nand2_1
XFILLER_20_77 VGND VGND VPWR VPWR sky130_fd_sc_hd__decap_6
XFILLER_4_239 VGND VGND VPWR VPWR sky130_fd_sc_hd__fill_2
XFILLER_28_195 VGND VGND VPWR VPWR sky130_fd_sc_hd__fill_1
XFILLER_19_173 VGND VGND VPWR VPWR sky130_fd_sc_hd__fill_1
XFILLER_40_113 VGND VGND VPWR VPWR sky130_ef_sc_hd__decap_12
XFILLER_34_187 VGND VGND VPWR VPWR sky130_fd_sc_hd__decap_8
XFILLER_15_55 VGND VGND VPWR VPWR sky130_fd_sc_hd__fill_1
Xoutput10 _247_/X VGND VGND VPWR VPWR Out_Data[0] sky130_fd_sc_hd__buf_2
XFILLER_31_113 VGND VGND VPWR VPWR sky130_ef_sc_hd__decap_12
XFILLER_31_76 VGND VGND VPWR VPWR sky130_ef_sc_hd__decap_12
XFILLER_16_121 VGND VGND VPWR VPWR sky130_fd_sc_hd__decap_6
XTAP_179 VGND VPWR sky130_fd_sc_hd__tapvpwrvgnd_1
XTAP_168 VGND VPWR sky130_fd_sc_hd__tapvpwrvgnd_1
XTAP_157 VGND VPWR sky130_fd_sc_hd__tapvpwrvgnd_1
XTAP_146 VGND VPWR sky130_fd_sc_hd__tapvpwrvgnd_1
XTAP_135 VGND VPWR sky130_fd_sc_hd__tapvpwrvgnd_1
XTAP_102 VGND VPWR sky130_fd_sc_hd__tapvpwrvgnd_1
XTAP_113 VGND VPWR sky130_fd_sc_hd__tapvpwrvgnd_1
XTAP_124 VGND VPWR sky130_fd_sc_hd__tapvpwrvgnd_1
XFILLER_13_146 VGND VGND VPWR VPWR sky130_ef_sc_hd__decap_12
XFILLER_13_113 VGND VGND VPWR VPWR sky130_ef_sc_hd__decap_12
XFILLER_3_69 VGND VGND VPWR VPWR sky130_ef_sc_hd__decap_12
XFILLER_8_194 VGND VGND VPWR VPWR sky130_fd_sc_hd__fill_2
XFILLER_27_205 VGND VGND VPWR VPWR sky130_ef_sc_hd__decap_12
XFILLER_10_138 VGND VGND VPWR VPWR sky130_fd_sc_hd__fill_2
XFILLER_23_55 VGND VGND VPWR VPWR sky130_fd_sc_hd__fill_1
XFILLER_0_15 VGND VGND VPWR VPWR sky130_ef_sc_hd__decap_12
XFILLER_2_189 VGND VGND VPWR VPWR sky130_fd_sc_hd__decap_6
XFILLER_3_3 VGND VGND VPWR VPWR sky130_ef_sc_hd__decap_12
XFILLER_9_35 VGND VGND VPWR VPWR sky130_ef_sc_hd__decap_12
XFILLER_36_3 VGND VGND VPWR VPWR sky130_ef_sc_hd__decap_12
X_258_ _266_/CLK _258_/D fanout16/X VGND VGND VPWR VPWR _258_/Q sky130_fd_sc_hd__dfrtp_1
X_189_ _272_/Q _189_/B _189_/C VGND VGND VPWR VPWR _229_/C sky130_fd_sc_hd__or3_2
XFILLER_20_233 VGND VGND VPWR VPWR sky130_fd_sc_hd__decap_8
XFILLER_9_57 VGND VGND VPWR VPWR sky130_ef_sc_hd__decap_12
X_112_ _269_/Q _262_/Q VGND VGND VPWR VPWR _113_/B sky130_fd_sc_hd__or2_1
XFILLER_7_237 VGND VGND VPWR VPWR sky130_fd_sc_hd__decap_4
XFILLER_28_141 VGND VGND VPWR VPWR sky130_ef_sc_hd__decap_12
XFILLER_40_169 VGND VGND VPWR VPWR sky130_ef_sc_hd__decap_12
XFILLER_40_147 VGND VGND VPWR VPWR sky130_ef_sc_hd__decap_12
Xoutput11 _233_/Y VGND VGND VPWR VPWR Out_Data[1] sky130_fd_sc_hd__buf_2
XFILLER_40_125 VGND VGND VPWR VPWR sky130_ef_sc_hd__decap_12
XFILLER_31_88 VGND VGND VPWR VPWR sky130_ef_sc_hd__decap_12
XFILLER_31_55 VGND VGND VPWR VPWR sky130_fd_sc_hd__fill_1
XFILLER_25_166 VGND VGND VPWR VPWR sky130_fd_sc_hd__fill_2
XFILLER_0_221 VGND VGND VPWR VPWR sky130_fd_sc_hd__decap_3
XFILLER_39_225 VGND VGND VPWR VPWR sky130_ef_sc_hd__decap_12
XFILLER_31_169 VGND VGND VPWR VPWR sky130_ef_sc_hd__decap_12
XFILLER_31_125 VGND VGND VPWR VPWR sky130_ef_sc_hd__decap_12
XTAP_169 VGND VPWR sky130_fd_sc_hd__tapvpwrvgnd_1
XTAP_158 VGND VPWR sky130_fd_sc_hd__tapvpwrvgnd_1
XTAP_147 VGND VPWR sky130_fd_sc_hd__tapvpwrvgnd_1
XTAP_136 VGND VPWR sky130_fd_sc_hd__tapvpwrvgnd_1
XTAP_103 VGND VPWR sky130_fd_sc_hd__tapvpwrvgnd_1
XTAP_114 VGND VPWR sky130_fd_sc_hd__tapvpwrvgnd_1
XTAP_125 VGND VPWR sky130_fd_sc_hd__tapvpwrvgnd_1
XFILLER_13_169 VGND VGND VPWR VPWR sky130_ef_sc_hd__decap_12
XFILLER_13_158 VGND VGND VPWR VPWR sky130_fd_sc_hd__decap_8
XFILLER_13_125 VGND VGND VPWR VPWR sky130_fd_sc_hd__fill_1
XFILLER_13_103 VGND VGND VPWR VPWR sky130_fd_sc_hd__decap_8
XFILLER_3_15 VGND VGND VPWR VPWR sky130_ef_sc_hd__decap_12
XFILLER_8_162 VGND VGND VPWR VPWR sky130_ef_sc_hd__decap_12
XFILLER_27_217 VGND VGND VPWR VPWR sky130_fd_sc_hd__decap_6
XFILLER_5_110 VGND VGND VPWR VPWR sky130_fd_sc_hd__fill_2
XFILLER_5_176 VGND VGND VPWR VPWR sky130_ef_sc_hd__decap_12
XFILLER_24_209 VGND VGND VPWR VPWR sky130_fd_sc_hd__decap_3
XFILLER_0_27 VGND VGND VPWR VPWR sky130_fd_sc_hd__fill_1
X_188_ _188_/A VGND VGND VPWR VPWR _265_/D sky130_fd_sc_hd__clkbuf_1
XFILLER_29_3 VGND VGND VPWR VPWR sky130_ef_sc_hd__decap_12
X_257_ _272_/CLK _257_/D fanout17/X VGND VGND VPWR VPWR _257_/Q sky130_fd_sc_hd__dfrtp_1
XFILLER_9_47 VGND VGND VPWR VPWR sky130_fd_sc_hd__decap_8
XFILLER_9_69 VGND VGND VPWR VPWR sky130_ef_sc_hd__decap_12
XFILLER_38_109 VGND VGND VPWR VPWR sky130_ef_sc_hd__decap_12
X_111_ _269_/Q _262_/Q VGND VGND VPWR VPWR _113_/A sky130_fd_sc_hd__nand2_1
XFILLER_1_81 VGND VGND VPWR VPWR sky130_ef_sc_hd__decap_12
XFILLER_28_197 VGND VGND VPWR VPWR sky130_ef_sc_hd__decap_12
XFILLER_28_153 VGND VGND VPWR VPWR sky130_ef_sc_hd__decap_12
XFILLER_6_15 VGND VGND VPWR VPWR sky130_ef_sc_hd__decap_12
XFILLER_10_90 VGND VGND VPWR VPWR sky130_ef_sc_hd__decap_12
XFILLER_40_159 VGND VGND VPWR VPWR sky130_fd_sc_hd__decap_8
XFILLER_40_137 VGND VGND VPWR VPWR sky130_fd_sc_hd__decap_3
XFILLER_15_57 VGND VGND VPWR VPWR sky130_ef_sc_hd__decap_12
Xoutput12 _240_/Y VGND VGND VPWR VPWR Out_Data[2] sky130_fd_sc_hd__buf_2
XFILLER_39_237 VGND VGND VPWR VPWR sky130_fd_sc_hd__decap_4
XFILLER_31_137 VGND VGND VPWR VPWR sky130_ef_sc_hd__decap_12
XTAP_159 VGND VPWR sky130_fd_sc_hd__tapvpwrvgnd_1
XTAP_148 VGND VPWR sky130_fd_sc_hd__tapvpwrvgnd_1
XTAP_137 VGND VPWR sky130_fd_sc_hd__tapvpwrvgnd_1
XFILLER_11_3 VGND VGND VPWR VPWR sky130_ef_sc_hd__decap_12
XTAP_104 VGND VPWR sky130_fd_sc_hd__tapvpwrvgnd_1
XTAP_115 VGND VPWR sky130_fd_sc_hd__tapvpwrvgnd_1
XTAP_126 VGND VPWR sky130_fd_sc_hd__tapvpwrvgnd_1
XFILLER_26_34 VGND VGND VPWR VPWR sky130_fd_sc_hd__decap_4
XFILLER_22_159 VGND VGND VPWR VPWR sky130_fd_sc_hd__fill_1
XFILLER_22_115 VGND VGND VPWR VPWR sky130_fd_sc_hd__fill_1
XFILLER_21_181 VGND VGND VPWR VPWR sky130_ef_sc_hd__decap_12
XFILLER_3_27 VGND VGND VPWR VPWR sky130_ef_sc_hd__decap_12
XFILLER_12_170 VGND VGND VPWR VPWR sky130_ef_sc_hd__decap_12
XFILLER_8_141 VGND VGND VPWR VPWR sky130_ef_sc_hd__decap_12
XFILLER_8_174 VGND VGND VPWR VPWR sky130_ef_sc_hd__decap_12
XFILLER_37_55 VGND VGND VPWR VPWR sky130_fd_sc_hd__fill_1
XFILLER_32_232 VGND VGND VPWR VPWR sky130_fd_sc_hd__decap_8
XFILLER_5_188 VGND VGND VPWR VPWR sky130_ef_sc_hd__decap_12
XFILLER_23_57 VGND VGND VPWR VPWR sky130_ef_sc_hd__decap_12
X_187_ _187_/A _187_/B VGND VGND VPWR VPWR _188_/A sky130_fd_sc_hd__and2_1
X_256_ _272_/CLK _256_/D fanout17/X VGND VGND VPWR VPWR _256_/Q sky130_fd_sc_hd__dfrtp_1
XFILLER_9_15 VGND VGND VPWR VPWR sky130_ef_sc_hd__decap_12
X_110_ _270_/Q _263_/Q VGND VGND VPWR VPWR _184_/A sky130_fd_sc_hd__nor2_1
X_239_ _245_/A _245_/B _238_/Y _232_/B VGND VGND VPWR VPWR _240_/B sky130_fd_sc_hd__a31oi_4
XFILLER_1_93 VGND VGND VPWR VPWR sky130_ef_sc_hd__decap_12
XFILLER_28_165 VGND VGND VPWR VPWR sky130_fd_sc_hd__fill_1
XFILLER_4_209 VGND VGND VPWR VPWR sky130_ef_sc_hd__decap_12
XFILLER_34_102 VGND VGND VPWR VPWR sky130_ef_sc_hd__decap_12
XFILLER_6_27 VGND VGND VPWR VPWR sky130_fd_sc_hd__fill_1
XFILLER_40_105 VGND VGND VPWR VPWR sky130_fd_sc_hd__decap_6
XFILLER_31_57 VGND VGND VPWR VPWR sky130_fd_sc_hd__fill_2
XFILLER_25_113 VGND VGND VPWR VPWR sky130_fd_sc_hd__decap_6
Xoutput13 _243_/X VGND VGND VPWR VPWR Out_Data[3] sky130_fd_sc_hd__buf_2
XFILLER_15_69 VGND VGND VPWR VPWR sky130_ef_sc_hd__decap_12
XFILLER_39_205 VGND VGND VPWR VPWR sky130_ef_sc_hd__decap_12
XFILLER_31_149 VGND VGND VPWR VPWR sky130_ef_sc_hd__decap_12
XFILLER_16_157 VGND VGND VPWR VPWR sky130_fd_sc_hd__decap_4
XFILLER_16_102 VGND VGND VPWR VPWR sky130_fd_sc_hd__fill_1
XTAP_149 VGND VPWR sky130_fd_sc_hd__tapvpwrvgnd_1
XTAP_138 VGND VPWR sky130_fd_sc_hd__tapvpwrvgnd_1
XTAP_105 VGND VPWR sky130_fd_sc_hd__tapvpwrvgnd_1
XTAP_116 VGND VPWR sky130_fd_sc_hd__tapvpwrvgnd_1
XTAP_127 VGND VPWR sky130_fd_sc_hd__tapvpwrvgnd_1
XFILLER_21_193 VGND VGND VPWR VPWR sky130_ef_sc_hd__decap_12
XFILLER_3_39 VGND VGND VPWR VPWR sky130_ef_sc_hd__decap_12
XFILLER_12_182 VGND VGND VPWR VPWR sky130_ef_sc_hd__decap_12
XFILLER_8_131 VGND VGND VPWR VPWR sky130_fd_sc_hd__decap_8
XFILLER_8_153 VGND VGND VPWR VPWR sky130_fd_sc_hd__decap_6
XFILLER_8_186 VGND VGND VPWR VPWR sky130_fd_sc_hd__decap_8
XFILLER_8_197 VGND VGND VPWR VPWR sky130_ef_sc_hd__decap_12
XFILLER_37_89 VGND VGND VPWR VPWR sky130_ef_sc_hd__decap_12
X_272_ _272_/CLK _272_/D fanout17/X VGND VGND VPWR VPWR _272_/Q sky130_fd_sc_hd__dfrtp_4
XFILLER_12_37 VGND VGND VPWR VPWR sky130_ef_sc_hd__decap_12
XFILLER_12_15 VGND VGND VPWR VPWR sky130_ef_sc_hd__decap_12
XFILLER_5_167 VGND VGND VPWR VPWR sky130_fd_sc_hd__fill_1
XFILLER_23_222 VGND VGND VPWR VPWR sky130_fd_sc_hd__fill_2
XFILLER_23_69 VGND VGND VPWR VPWR sky130_ef_sc_hd__decap_12
X_186_ _265_/Q _258_/Q VGND VGND VPWR VPWR _187_/B sky130_fd_sc_hd__or2_1
XFILLER_0_29 VGND VGND VPWR VPWR sky130_fd_sc_hd__fill_2
XFILLER_9_27 VGND VGND VPWR VPWR sky130_fd_sc_hd__decap_4
X_255_ _272_/CLK _255_/D fanout17/X VGND VGND VPWR VPWR _255_/Q sky130_fd_sc_hd__dfrtp_1
XFILLER_1_181 VGND VGND VPWR VPWR sky130_ef_sc_hd__decap_12
XFILLER_34_79 VGND VGND VPWR VPWR sky130_fd_sc_hd__decap_4
XFILLER_11_225 VGND VGND VPWR VPWR sky130_ef_sc_hd__decap_12
XFILLER_1_3 VGND VGND VPWR VPWR sky130_ef_sc_hd__decap_12
X_169_ _169_/A _169_/B VGND VGND VPWR VPWR _170_/A sky130_fd_sc_hd__and2_1
XFILLER_34_3 VGND VGND VPWR VPWR sky130_ef_sc_hd__decap_12
X_238_ _242_/A _229_/X _248_/Q _226_/B VGND VGND VPWR VPWR _238_/Y sky130_fd_sc_hd__o211ai_2
XFILLER_29_57 VGND VGND VPWR VPWR sky130_ef_sc_hd__decap_12
XFILLER_20_15 VGND VGND VPWR VPWR sky130_ef_sc_hd__decap_12
XFILLER_34_114 VGND VGND VPWR VPWR sky130_ef_sc_hd__decap_12
XFILLER_19_111 VGND VGND VPWR VPWR sky130_fd_sc_hd__fill_1
XFILLER_25_169 VGND VGND VPWR VPWR sky130_ef_sc_hd__decap_12
XFILLER_15_15 VGND VGND VPWR VPWR sky130_ef_sc_hd__decap_12
Xoutput14 _244_/X VGND VGND VPWR VPWR Out_Data[4] sky130_fd_sc_hd__buf_2
XFILLER_16_169 VGND VGND VPWR VPWR sky130_ef_sc_hd__decap_12
XFILLER_39_217 VGND VGND VPWR VPWR sky130_fd_sc_hd__decap_6
XFILLER_22_139 VGND VGND VPWR VPWR sky130_fd_sc_hd__fill_1
XTAP_139 VGND VPWR sky130_fd_sc_hd__tapvpwrvgnd_1
XPHY_0 VGND VGND VPWR VPWR sky130_fd_sc_hd__decap_3
XTAP_106 VGND VPWR sky130_fd_sc_hd__tapvpwrvgnd_1
XFILLER_7_93 VGND VGND VPWR VPWR sky130_fd_sc_hd__decap_4
XTAP_117 VGND VPWR sky130_fd_sc_hd__tapvpwrvgnd_1
XTAP_128 VGND VPWR sky130_fd_sc_hd__tapvpwrvgnd_1
XFILLER_21_161 VGND VGND VPWR VPWR sky130_fd_sc_hd__decap_6
XFILLER_36_209 VGND VGND VPWR VPWR sky130_ef_sc_hd__decap_12
XFILLER_12_194 VGND VGND VPWR VPWR sky130_fd_sc_hd__fill_2
XFILLER_37_57 VGND VGND VPWR VPWR sky130_ef_sc_hd__decap_12
XFILLER_18_209 VGND VGND VPWR VPWR sky130_ef_sc_hd__decap_12
XFILLER_12_49 VGND VGND VPWR VPWR sky130_ef_sc_hd__decap_12
XFILLER_12_27 VGND VGND VPWR VPWR sky130_fd_sc_hd__fill_1
X_271_ _271_/CLK _271_/D fanout15/X VGND VGND VPWR VPWR _271_/Q sky130_fd_sc_hd__dfrtp_1
XFILLER_5_113 VGND VGND VPWR VPWR sky130_ef_sc_hd__decap_12
XFILLER_23_15 VGND VGND VPWR VPWR sky130_ef_sc_hd__decap_12
XFILLER_4_83 VGND VGND VPWR VPWR sky130_fd_sc_hd__fill_1
X_254_ _266_/CLK _254_/D fanout16/X VGND VGND VPWR VPWR _254_/Q sky130_fd_sc_hd__dfrtp_1
X_185_ _185_/A _185_/B VGND VGND VPWR VPWR _271_/D sky130_fd_sc_hd__xnor2_1
XFILLER_13_81 VGND VGND VPWR VPWR sky130_fd_sc_hd__decap_8
XFILLER_1_193 VGND VGND VPWR VPWR sky130_ef_sc_hd__decap_12
XFILLER_18_48 VGND VGND VPWR VPWR sky130_ef_sc_hd__decap_12
XFILLER_18_37 VGND VGND VPWR VPWR sky130_fd_sc_hd__decap_4
XFILLER_18_15 VGND VGND VPWR VPWR sky130_ef_sc_hd__decap_12
XFILLER_11_237 VGND VGND VPWR VPWR sky130_fd_sc_hd__decap_4
X_168_ _258_/Q _251_/Q VGND VGND VPWR VPWR _169_/B sky130_fd_sc_hd__or2_1
X_237_ _237_/A _237_/B VGND VGND VPWR VPWR _240_/A sky130_fd_sc_hd__nor2_1
XFILLER_27_3 VGND VGND VPWR VPWR sky130_fd_sc_hd__fill_2
XFILLER_37_167 VGND VGND VPWR VPWR sky130_fd_sc_hd__fill_1
XFILLER_37_101 VGND VGND VPWR VPWR sky130_fd_sc_hd__decap_8
XFILLER_29_69 VGND VGND VPWR VPWR sky130_ef_sc_hd__decap_12
XFILLER_20_27 VGND VGND VPWR VPWR sky130_fd_sc_hd__fill_1
XFILLER_1_51 VGND VGND VPWR VPWR sky130_fd_sc_hd__decap_4
XFILLER_34_148 VGND VGND VPWR VPWR sky130_fd_sc_hd__decap_4
XFILLER_28_189 VGND VGND VPWR VPWR sky130_fd_sc_hd__decap_6
XFILLER_19_189 VGND VGND VPWR VPWR sky130_fd_sc_hd__fill_2
XFILLER_19_167 VGND VGND VPWR VPWR sky130_fd_sc_hd__fill_1
XFILLER_6_29 VGND VGND VPWR VPWR sky130_ef_sc_hd__decap_12
XFILLER_25_126 VGND VGND VPWR VPWR sky130_ef_sc_hd__decap_12
XFILLER_15_27 VGND VGND VPWR VPWR sky130_ef_sc_hd__decap_12
XFILLER_31_15 VGND VGND VPWR VPWR sky130_ef_sc_hd__decap_12
XFILLER_0_225 VGND VGND VPWR VPWR sky130_fd_sc_hd__decap_4
XFILLER_30_195 VGND VGND VPWR VPWR sky130_fd_sc_hd__fill_1
XFILLER_21_81 VGND VGND VPWR VPWR sky130_ef_sc_hd__decap_12
XPHY_1 VGND VGND VPWR VPWR sky130_fd_sc_hd__decap_3
XTAP_107 VGND VPWR sky130_fd_sc_hd__tapvpwrvgnd_1
XTAP_118 VGND VPWR sky130_fd_sc_hd__tapvpwrvgnd_1
XTAP_129 VGND VPWR sky130_fd_sc_hd__tapvpwrvgnd_1
XFILLER_26_26 VGND VGND VPWR VPWR sky130_fd_sc_hd__fill_2
XFILLER_26_15 VGND VGND VPWR VPWR sky130_fd_sc_hd__decap_4
XFILLER_35_221 VGND VGND VPWR VPWR sky130_fd_sc_hd__decap_3
XFILLER_37_69 VGND VGND VPWR VPWR sky130_ef_sc_hd__decap_12
XFILLER_17_210 VGND VGND VPWR VPWR sky130_fd_sc_hd__decap_3
XFILLER_5_125 VGND VGND VPWR VPWR sky130_ef_sc_hd__decap_12
X_270_ _271_/CLK _270_/D fanout15/X VGND VGND VPWR VPWR _270_/Q sky130_fd_sc_hd__dfrtp_1
XFILLER_5_169 VGND VGND VPWR VPWR sky130_fd_sc_hd__fill_2
XFILLER_23_27 VGND VGND VPWR VPWR sky130_ef_sc_hd__decap_12
XFILLER_14_213 VGND VGND VPWR VPWR sky130_fd_sc_hd__fill_1
XFILLER_2_139 VGND VGND VPWR VPWR sky130_fd_sc_hd__fill_1
X_253_ _271_/CLK _253_/D fanout15/X VGND VGND VPWR VPWR _253_/Q sky130_fd_sc_hd__dfrtp_1
X_184_ _184_/A _184_/B VGND VGND VPWR VPWR _185_/B sky130_fd_sc_hd__nor2_1
XFILLER_1_161 VGND VGND VPWR VPWR sky130_fd_sc_hd__decap_6
XFILLER_34_15 VGND VGND VPWR VPWR sky130_ef_sc_hd__decap_12
XFILLER_18_27 VGND VGND VPWR VPWR sky130_fd_sc_hd__fill_1
X_236_ _242_/A _242_/B VGND VGND VPWR VPWR _237_/B sky130_fd_sc_hd__nor2_1
X_167_ _167_/A _167_/B VGND VGND VPWR VPWR _264_/D sky130_fd_sc_hd__xnor2_1
XFILLER_37_113 VGND VGND VPWR VPWR sky130_ef_sc_hd__decap_12
XFILLER_29_26 VGND VGND VPWR VPWR sky130_ef_sc_hd__decap_12
XFILLER_29_15 VGND VGND VPWR VPWR sky130_fd_sc_hd__decap_3
XFILLER_19_113 VGND VGND VPWR VPWR sky130_ef_sc_hd__decap_12
XFILLER_3_223 VGND VGND VPWR VPWR sky130_fd_sc_hd__fill_1
XFILLER_34_138 VGND VGND VPWR VPWR sky130_fd_sc_hd__fill_2
XFILLER_19_81 VGND VGND VPWR VPWR sky130_ef_sc_hd__decap_12
X_219_ _219_/A _219_/B VGND VGND VPWR VPWR _220_/B sky130_fd_sc_hd__nand2_1
XFILLER_31_27 VGND VGND VPWR VPWR sky130_ef_sc_hd__decap_12
XFILLER_25_138 VGND VGND VPWR VPWR sky130_fd_sc_hd__decap_8
XFILLER_16_149 VGND VGND VPWR VPWR sky130_fd_sc_hd__decap_3
XFILLER_16_127 VGND VGND VPWR VPWR sky130_fd_sc_hd__fill_1
XFILLER_15_39 VGND VGND VPWR VPWR sky130_ef_sc_hd__decap_12
XFILLER_24_160 VGND VGND VPWR VPWR sky130_ef_sc_hd__decap_12
XFILLER_22_119 VGND VGND VPWR VPWR sky130_ef_sc_hd__decap_12
XFILLER_21_93 VGND VGND VPWR VPWR sky130_ef_sc_hd__decap_12
XFILLER_15_193 VGND VGND VPWR VPWR sky130_fd_sc_hd__decap_8
XPHY_2 VGND VGND VPWR VPWR sky130_fd_sc_hd__decap_3
XTAP_108 VGND VPWR sky130_fd_sc_hd__tapvpwrvgnd_1
XTAP_119 VGND VPWR sky130_fd_sc_hd__tapvpwrvgnd_1
XFILLER_30_141 VGND VGND VPWR VPWR sky130_ef_sc_hd__decap_12
XFILLER_7_51 VGND VGND VPWR VPWR sky130_fd_sc_hd__decap_4
XFILLER_7_84 VGND VGND VPWR VPWR sky130_fd_sc_hd__decap_4
XFILLER_16_82 VGND VGND VPWR VPWR sky130_fd_sc_hd__fill_2
XFILLER_12_141 VGND VGND VPWR VPWR sky130_fd_sc_hd__fill_2
XFILLER_12_29 VGND VGND VPWR VPWR sky130_fd_sc_hd__fill_2
XFILLER_37_15 VGND VGND VPWR VPWR sky130_ef_sc_hd__decap_12
XFILLER_5_137 VGND VGND VPWR VPWR sky130_fd_sc_hd__decap_6
XFILLER_32_203 VGND VGND VPWR VPWR sky130_fd_sc_hd__fill_1
XFILLER_4_41 VGND VGND VPWR VPWR sky130_ef_sc_hd__decap_12
XFILLER_4_85 VGND VGND VPWR VPWR sky130_ef_sc_hd__decap_12
XFILLER_23_225 VGND VGND VPWR VPWR sky130_ef_sc_hd__decap_12
XFILLER_23_39 VGND VGND VPWR VPWR sky130_ef_sc_hd__decap_12
X_252_ _271_/CLK _252_/D fanout15/X VGND VGND VPWR VPWR _252_/Q sky130_fd_sc_hd__dfrtp_1
X_183_ _183_/A _183_/B VGND VGND VPWR VPWR _185_/A sky130_fd_sc_hd__nand2_1
XFILLER_13_94 VGND VGND VPWR VPWR sky130_fd_sc_hd__decap_4
XFILLER_34_27 VGND VGND VPWR VPWR sky130_fd_sc_hd__fill_1
X_235_ _242_/A _242_/B VGND VGND VPWR VPWR _237_/A sky130_fd_sc_hd__and2_1
XFILLER_40_81 VGND VGND VPWR VPWR sky130_fd_sc_hd__decap_3
XFILLER_37_169 VGND VGND VPWR VPWR sky130_ef_sc_hd__decap_12
XFILLER_37_125 VGND VGND VPWR VPWR sky130_ef_sc_hd__decap_12
XFILLER_20_29 VGND VGND VPWR VPWR sky130_ef_sc_hd__decap_12
X_166_ _166_/A _166_/B VGND VGND VPWR VPWR _167_/B sky130_fd_sc_hd__or2_1
XFILLER_6_221 VGND VGND VPWR VPWR sky130_ef_sc_hd__decap_12
XFILLER_29_38 VGND VGND VPWR VPWR sky130_ef_sc_hd__decap_12
XFILLER_28_169 VGND VGND VPWR VPWR sky130_fd_sc_hd__decap_4
XFILLER_28_103 VGND VGND VPWR VPWR sky130_ef_sc_hd__decap_12
XFILLER_35_70 VGND VGND VPWR VPWR sky130_fd_sc_hd__fill_2
XFILLER_32_3 VGND VGND VPWR VPWR sky130_ef_sc_hd__decap_12
XFILLER_27_180 VGND VGND VPWR VPWR sky130_fd_sc_hd__decap_4
X_149_ _272_/Q _189_/B _189_/C VGND VGND VPWR VPWR _241_/B sky130_fd_sc_hd__nand3_4
XFILLER_19_169 VGND VGND VPWR VPWR sky130_fd_sc_hd__decap_4
XFILLER_19_125 VGND VGND VPWR VPWR sky130_ef_sc_hd__decap_12
XFILLER_19_93 VGND VGND VPWR VPWR sky130_ef_sc_hd__decap_12
X_218_ _256_/Q _211_/B _214_/B VGND VGND VPWR VPWR _219_/B sky130_fd_sc_hd__a21o_1
XFILLER_33_161 VGND VGND VPWR VPWR sky130_fd_sc_hd__decap_6
XFILLER_31_39 VGND VGND VPWR VPWR sky130_ef_sc_hd__decap_12
XFILLER_24_172 VGND VGND VPWR VPWR sky130_ef_sc_hd__decap_12
XFILLER_24_150 VGND VGND VPWR VPWR sky130_fd_sc_hd__decap_4
XFILLER_16_139 VGND VGND VPWR VPWR sky130_fd_sc_hd__fill_1
XTAP_109 VGND VPWR sky130_fd_sc_hd__tapvpwrvgnd_1
XFILLER_30_197 VGND VGND VPWR VPWR sky130_ef_sc_hd__decap_12
XFILLER_30_153 VGND VGND VPWR VPWR sky130_ef_sc_hd__decap_12
XFILLER_22_109 VGND VGND VPWR VPWR sky130_fd_sc_hd__decap_6
XPHY_3 VGND VGND VPWR VPWR sky130_fd_sc_hd__decap_3
XFILLER_16_94 VGND VGND VPWR VPWR sky130_fd_sc_hd__decap_8
XFILLER_12_197 VGND VGND VPWR VPWR sky130_fd_sc_hd__decap_6
XFILLER_37_27 VGND VGND VPWR VPWR sky130_ef_sc_hd__decap_12
XFILLER_17_223 VGND VGND VPWR VPWR sky130_fd_sc_hd__fill_1
XFILLER_23_237 VGND VGND VPWR VPWR sky130_fd_sc_hd__decap_4
XFILLER_4_53 VGND VGND VPWR VPWR sky130_ef_sc_hd__decap_12
XFILLER_4_97 VGND VGND VPWR VPWR sky130_fd_sc_hd__decap_8
X_251_ _271_/CLK _251_/D fanout15/X VGND VGND VPWR VPWR _251_/Q sky130_fd_sc_hd__dfrtp_2
X_182_ _271_/Q _264_/Q VGND VGND VPWR VPWR _183_/B sky130_fd_sc_hd__or2_1
XFILLER_18_29 VGND VGND VPWR VPWR sky130_fd_sc_hd__decap_3
XFILLER_37_137 VGND VGND VPWR VPWR sky130_ef_sc_hd__decap_12
X_234_ _250_/Q _241_/B VGND VGND VPWR VPWR _242_/B sky130_fd_sc_hd__xor2_1
XFILLER_24_83 VGND VGND VPWR VPWR sky130_fd_sc_hd__fill_1
X_165_ _165_/A _165_/B VGND VGND VPWR VPWR _167_/A sky130_fd_sc_hd__and2_1
XFILLER_6_233 VGND VGND VPWR VPWR sky130_fd_sc_hd__decap_8
XFILLER_10_240 VGND VGND VPWR VPWR sky130_fd_sc_hd__fill_1
XFILLER_36_192 VGND VGND VPWR VPWR sky130_fd_sc_hd__decap_4
XFILLER_36_170 VGND VGND VPWR VPWR sky130_fd_sc_hd__decap_4
XFILLER_28_115 VGND VGND VPWR VPWR sky130_ef_sc_hd__decap_12
XFILLER_34_129 VGND VGND VPWR VPWR sky130_fd_sc_hd__decap_4
XFILLER_19_137 VGND VGND VPWR VPWR sky130_ef_sc_hd__decap_12
X_217_ _217_/A _217_/B VGND VGND VPWR VPWR _220_/A sky130_fd_sc_hd__nor2_1
X_148_ _130_/Y _166_/A _166_/B _165_/A VGND VGND VPWR VPWR _189_/C sky130_fd_sc_hd__o31a_2