* NGSPICE file created from integer_pll_2.ext - technology: sky130A

.subckt integer_pll_2 VOP REF ibias_bgr ibias_vco ibias_cp FB vp vctrl modi vn dn
+ up vco_out P0 P1 P2 P7 P6 P5 P4 P3 modo VDD GND
X0 VDD vco_out a_42742_125693# VDD sky130_fd_pr__pfet_01v8 ad=3.69478e+14p pd=2.61802e+09u as=3.48e+12p ps=2.574e+07u w=4e+06u l=150000u
X1 a_81271_120224# a_81649_121544# GND sky130_fd_pr__res_xhigh_po w=1.41e+06u l=4.44e+06u
X2 a_n18608_82354# a_n18608_82354# GND GND sky130_fd_pr__nfet_g5v0d10v5 ad=4.872e+11p pd=5.68e+06u as=1.827e+12p ps=2.13e+07u w=420000u l=500000u
X3 a_n18608_82354# a_n18539_76541# a_n18597_76638# VDD sky130_fd_pr__pfet_g5v0d10v5 ad=1.305e+13p pd=9.174e+07u as=2.668e+13p ps=1.8864e+08u w=1.5e+07u l=500000u
X4 a_46076_122582# vco_out a_45788_126509# GND sky130_fd_pr__nfet_01v8 ad=5.8e+11p pd=4.58e+06u as=1.16e+12p ps=9.16e+06u w=2e+06u l=150000u
X5 ibias_bgr a_n13854_75307# VDD VDD sky130_fd_pr__pfet_g5v0d10v5 ad=2.9e+13p pd=2.58e+08u as=5.684e+13p ps=4.8364e+08u w=1e+06u l=500000u
X6 a_82405_120224# GND sky130_fd_pr__cap_mim_m3_1 l=2.788e+07u w=2.787e+07u
X7 a_82027_120224# a_81649_121544# GND sky130_fd_pr__res_xhigh_po w=1.41e+06u l=4.44e+06u
X8 a_n11913_83762# a_n12291_86194# GND sky130_fd_pr__res_xhigh_po w=1.41e+06u l=1e+07u
X9 ibias_bgr a_n13854_75307# VDD VDD sky130_fd_pr__pfet_g5v0d10v5 ad=0p pd=0u as=0p ps=0u w=1e+06u l=500000u
X10 VDD a_n13854_75307# ibias_bgr VDD sky130_fd_pr__pfet_g5v0d10v5 ad=0p pd=0u as=0p ps=0u w=1e+06u l=500000u
X11 VDD a_n13854_75307# ibias_bgr VDD sky130_fd_pr__pfet_g5v0d10v5 ad=0p pd=0u as=0p ps=0u w=1e+06u l=500000u
X12 VDD ibias_vco w_n17989_117096# VDD sky130_fd_pr__pfet_01v8 ad=0p pd=0u as=2.333e+14p ps=1.55838e+09u w=2e+07u l=500000u
X13 VDD a_n13854_75307# ibias_bgr VDD sky130_fd_pr__pfet_g5v0d10v5 ad=0p pd=0u as=0p ps=0u w=1e+06u l=500000u
X14 a_82405_120224# GND sky130_fd_pr__cap_mim_m3_1 l=2.788e+07u w=2.787e+07u
X15 a_82405_120224# GND sky130_fd_pr__cap_mim_m3_1 l=2.788e+07u w=2.787e+07u
X16 a_62008_116628# a_60840_125701# a_61582_120050# GND sky130_fd_pr__nfet_01v8 ad=1.16e+12p pd=9.16e+06u as=5.8e+11p ps=4.58e+06u w=2e+06u l=150000u
X17 a_48559_117057# a_43766_116631# a_48908_116634# GND sky130_fd_pr__nfet_01v8 ad=1.74e+12p pd=1.258e+07u as=3.48e+12p ps=2.516e+07u w=6e+06u l=150000u
X18 GND a_82405_120224# sky130_fd_pr__cap_mim_m3_1 l=2.788e+07u w=2.787e+07u
X19 ibias_bgr a_n13854_75307# VDD VDD sky130_fd_pr__pfet_g5v0d10v5 ad=0p pd=0u as=0p ps=0u w=1e+06u l=500000u
X20 VDD a_n13854_75307# a_n13854_75307# VDD sky130_fd_pr__pfet_g5v0d10v5 ad=0p pd=0u as=6.38e+12p ps=5.676e+07u w=1e+06u l=500000u
X21 GND a_82405_120224# sky130_fd_pr__cap_mim_m3_1 l=2.788e+07u w=2.787e+07u
X22 a_82405_120224# GND sky130_fd_pr__cap_mim_m3_1 l=2.788e+07u w=2.787e+07u
X23 GND a_82405_120224# sky130_fd_pr__cap_mim_m3_1 l=2.788e+07u w=2.787e+07u
X24 VDD VDD VDD sky130_fd_pr__res_iso_pw w=2.65e+06u l=3e+07u
X25 GND a_82405_120224# sky130_fd_pr__cap_mim_m3_1 l=2.788e+07u w=2.787e+07u
X26 ibias_bgr a_n13854_75307# VDD VDD sky130_fd_pr__pfet_g5v0d10v5 ad=0p pd=0u as=0p ps=0u w=1e+06u l=500000u
X27 ibias_vco ibias_bgr GND GND sky130_fd_pr__nfet_01v8 ad=4.35e+13p pd=3.0348e+08u as=1.93838e+14p ps=1.34568e+09u w=2.5e+07u l=1e+06u
X28 ibias_bgr a_n13854_75307# VDD VDD sky130_fd_pr__pfet_g5v0d10v5 ad=0p pd=0u as=0p ps=0u w=1e+06u l=500000u
X29 a_49558_117048# a_49576_120048# GND GND sky130_fd_pr__nfet_01v8 ad=5.8e+11p pd=4.58e+06u as=0p ps=0u w=2e+06u l=150000u
X30 VDD a_n13854_75307# ibias_bgr VDD sky130_fd_pr__pfet_g5v0d10v5 ad=0p pd=0u as=0p ps=0u w=1e+06u l=500000u
X31 VDD VDD VDD sky130_fd_pr__res_iso_pw w=2.65e+06u l=3e+07u
X32 a_52858_120016# P6 a_53351_116633# GND sky130_fd_pr__nfet_01v8 ad=1.74e+12p pd=1.258e+07u as=3.48e+12p ps=2.516e+07u w=6e+06u l=150000u
X33 ibias_vco ibias_bgr GND GND sky130_fd_pr__nfet_01v8 ad=0p pd=0u as=0p ps=0u w=2.5e+07u l=1e+06u
X34 a_n13854_75307# a_n13854_75307# VDD VDD sky130_fd_pr__pfet_g5v0d10v5 ad=0p pd=0u as=0p ps=0u w=1e+06u l=500000u
X35 a_43472_125692# a_42742_125693# a_43384_125692# GND sky130_fd_pr__nfet_01v8 ad=3.48e+12p pd=2.516e+07u as=1.74e+12p ps=1.258e+07u w=6e+06u l=150000u
X36 ibias_cp ibias_cp VDD VDD sky130_fd_pr__pfet_01v8 ad=1.24e+13p pd=8.248e+07u as=0p ps=0u w=1e+07u l=150000u
X37 ibias_bgr a_n13854_75307# VDD VDD sky130_fd_pr__pfet_g5v0d10v5 ad=0p pd=0u as=0p ps=0u w=1e+06u l=500000u
X38 VDD ibias_vco w_n17989_117096# VDD sky130_fd_pr__pfet_01v8 ad=0p pd=0u as=0p ps=0u w=2e+07u l=500000u
X39 ibias_bgr a_n13854_75307# VDD VDD sky130_fd_pr__pfet_g5v0d10v5 ad=0p pd=0u as=0p ps=0u w=1e+06u l=500000u
X40 w_n17989_117096# ibias_vco VDD VDD sky130_fd_pr__pfet_01v8 ad=0p pd=0u as=0p ps=0u w=2e+07u l=500000u
X41 VDD ibias_vco w_n17989_117096# VDD sky130_fd_pr__pfet_01v8 ad=0p pd=0u as=0p ps=0u w=2e+07u l=500000u
X42 GND GND GND sky130_fd_pr__res_xhigh_po w=1.41e+06u l=4.44e+06u
X43 VDD a_n13854_75307# a_n18539_76541# VDD sky130_fd_pr__pfet_g5v0d10v5 ad=0p pd=0u as=1.45e+13p ps=1.0696e+08u w=1e+06u l=500000u
X44 a_65204_75375# w_38426_80141# a_65026_75375# VDD sky130_fd_pr__pfet_01v8 ad=2.5114e+13p pd=1.8016e+08u as=3.8628e+13p ps=2.78e+08u w=6.66e+06u l=600000u
X45 GND a_82405_120224# sky130_fd_pr__cap_mim_m3_1 l=2.788e+07u w=2.787e+07u
X46 a_82405_120224# GND sky130_fd_pr__cap_mim_m3_1 l=2.788e+07u w=2.787e+07u
X47 GND a_82405_120224# sky130_fd_pr__cap_mim_m3_1 l=2.788e+07u w=2.787e+07u
X48 GND a_82405_120224# sky130_fd_pr__cap_mim_m3_1 l=2.788e+07u w=2.787e+07u
X49 a_43823_120053# a_50956_116626# VDD VDD sky130_fd_pr__pfet_01v8 ad=2.32e+12p pd=1.716e+07u as=0p ps=0u w=4e+06u l=150000u
X50 VDD a_n13854_75307# ibias_bgr VDD sky130_fd_pr__pfet_g5v0d10v5 ad=0p pd=0u as=0p ps=0u w=1e+06u l=500000u
X51 GND a_82405_120224# sky130_fd_pr__cap_mim_m3_1 l=2.788e+07u w=2.787e+07u
X52 a_82405_120224# GND sky130_fd_pr__cap_mim_m3_1 l=2.788e+07u w=2.787e+07u
X53 a_62094_122590# a_61388_126507# a_61808_122590# VDD sky130_fd_pr__pfet_01v8 ad=1.16e+12p pd=8.58e+06u as=2.32e+12p ps=1.716e+07u w=4e+06u l=150000u
X54 a_n13854_75307# a_n18755_76638# GND GND sky130_fd_pr__nfet_g5v0d10v5 ad=1.218e+12p pd=1.42e+07u as=0p ps=0u w=420000u l=500000u
X55 VDD a_n13854_75307# ibias_bgr VDD sky130_fd_pr__pfet_g5v0d10v5 ad=0p pd=0u as=0p ps=0u w=1e+06u l=500000u
X56 VDD ibias_vco ibias_vco VDD sky130_fd_pr__pfet_01v8 ad=0p pd=0u as=2.9e+13p ps=2.029e+08u w=2e+07u l=500000u
X57 a_49258_125698# a_48527_125699# a_49170_125698# GND sky130_fd_pr__nfet_01v8 ad=3.48e+12p pd=2.516e+07u as=1.74e+12p ps=1.258e+07u w=6e+06u l=150000u
X58 a_82405_120224# GND sky130_fd_pr__cap_mim_m3_1 l=2.788e+07u w=2.787e+07u
X59 a_68184_88403# a_60093_75010# GND VDD sky130_fd_pr__pfet_01v8 ad=4.2514e+12p pd=3.106e+07u as=1.88626e+15p ps=2.05733e+09u w=4e+06u l=150000u
X60 a_80515_120224# a_80137_121544# GND sky130_fd_pr__res_xhigh_po w=1.41e+06u l=4.44e+06u
X61 VDD a_n13854_75307# ibias_bgr VDD sky130_fd_pr__pfet_g5v0d10v5 ad=0p pd=0u as=0p ps=0u w=1e+06u l=500000u
X62 VDD a_n13854_75307# ibias_bgr VDD sky130_fd_pr__pfet_g5v0d10v5 ad=0p pd=0u as=0p ps=0u w=1e+06u l=500000u
X63 ibias_bgr a_n13854_75307# VDD VDD sky130_fd_pr__pfet_g5v0d10v5 ad=0p pd=0u as=0p ps=0u w=1e+06u l=500000u
X64 a_82405_120224# GND sky130_fd_pr__cap_mim_m3_1 l=2.788e+07u w=2.787e+07u
X65 a_82405_120224# GND sky130_fd_pr__cap_mim_m3_1 l=2.788e+07u w=2.787e+07u
X66 VDD a_n13854_75307# ibias_bgr VDD sky130_fd_pr__pfet_g5v0d10v5 ad=0p pd=0u as=0p ps=0u w=1e+06u l=500000u
X67 a_56289_122590# a_55584_126507# a_56003_122590# VDD sky130_fd_pr__pfet_01v8 ad=1.16e+12p pd=8.58e+06u as=2.32e+12p ps=1.716e+07u w=4e+06u l=150000u
X68 vctrl vp vctrl GND sky130_fd_pr__nfet_01v8_lvt ad=1.479e+13p pd=1.0374e+08u as=0p ps=0u w=1.7e+07u l=8e+06u
X69 GND ibias_bgr ibias_vco GND sky130_fd_pr__nfet_01v8 ad=0p pd=0u as=0p ps=0u w=2.5e+07u l=1e+06u
X70 a_82405_120224# GND sky130_fd_pr__cap_mim_m3_1 l=2.788e+07u w=2.787e+07u
X71 GND a_36828_132074# dn GND sky130_fd_pr__nfet_01v8 ad=0p pd=0u as=7.25e+11p ps=5.58e+06u w=2.5e+06u l=150000u
X72 modo vco_out a_46471_122582# VDD sky130_fd_pr__pfet_01v8 ad=1.16e+12p pd=8.58e+06u as=2.32e+12p ps=1.716e+07u w=4e+06u l=150000u
X73 a_n18597_76638# a_n13854_75307# VDD VDD sky130_fd_pr__pfet_g5v0d10v5 ad=0p pd=0u as=0p ps=0u w=1e+06u l=500000u
X74 a_82405_120224# GND sky130_fd_pr__cap_mim_m3_1 l=2.788e+07u w=2.787e+07u
X75 ibias_vco ibias_bgr GND GND sky130_fd_pr__nfet_01v8 ad=0p pd=0u as=0p ps=0u w=2.5e+07u l=1e+06u
X76 GND a_82405_120224# sky130_fd_pr__cap_mim_m3_1 l=2.788e+07u w=2.787e+07u
X77 a_35801_131249# REF a_35703_131249# VDD sky130_fd_pr__pfet_01v8 ad=1.16e+12p pd=8.58e+06u as=2.61e+12p ps=1.916e+07u w=4e+06u l=200000u
X78 a_n18697_76541# a_n13854_75307# VDD VDD sky130_fd_pr__pfet_g5v0d10v5 ad=2.9e+12p pd=2.58e+07u as=0p ps=0u w=1e+06u l=500000u
X79 a_82405_120224# GND sky130_fd_pr__cap_mim_m3_1 l=2.788e+07u w=2.787e+07u
X80 GND a_82405_120224# sky130_fd_pr__cap_mim_m3_1 l=2.788e+07u w=2.787e+07u
X81 VDD ibias_vco ibias_vco VDD sky130_fd_pr__pfet_01v8 ad=0p pd=0u as=0p ps=0u w=2e+07u l=500000u
X82 a_63927_122590# a_63531_122590# VDD VDD sky130_fd_pr__pfet_01v8 ad=2.32e+12p pd=1.716e+07u as=0p ps=0u w=4e+06u l=150000u
X83 a_53351_116633# a_49576_120048# a_53151_116633# GND sky130_fd_pr__nfet_01v8 ad=0p pd=0u as=3.48e+12p ps=2.516e+07u w=6e+06u l=150000u
X84 a_n18597_76638# a_n18539_76541# a_n18608_82354# VDD sky130_fd_pr__pfet_g5v0d10v5 ad=0p pd=0u as=0p ps=0u w=1.5e+07u l=500000u
X85 VDD a_n13854_75307# ibias_bgr VDD sky130_fd_pr__pfet_g5v0d10v5 ad=0p pd=0u as=0p ps=0u w=1e+06u l=500000u
X86 VDD a_n13854_75307# a_n13854_75307# VDD sky130_fd_pr__pfet_g5v0d10v5 ad=0p pd=0u as=0p ps=0u w=1e+06u l=500000u
X87 a_82405_120224# GND sky130_fd_pr__cap_mim_m3_1 l=2.788e+07u w=2.787e+07u
X88 VDD ibias_vco w_n17989_117096# VDD sky130_fd_pr__pfet_01v8 ad=0p pd=0u as=0p ps=0u w=2e+07u l=500000u
X89 VDD a_n13854_75307# a_n18539_76541# VDD sky130_fd_pr__pfet_g5v0d10v5 ad=0p pd=0u as=0p ps=0u w=1e+06u l=500000u
X90 GND a_82405_120224# sky130_fd_pr__cap_mim_m3_1 l=2.788e+07u w=2.787e+07u
X91 GND a_42784_120157# a_44535_116631# GND sky130_fd_pr__nfet_01v8 ad=0p pd=0u as=1.16e+12p ps=9.16e+06u w=2e+06u l=150000u
X92 a_82405_120224# GND sky130_fd_pr__cap_mim_m3_1 l=2.788e+07u w=2.787e+07u
X93 a_50287_116626# a_49576_120048# a_49861_120048# GND sky130_fd_pr__nfet_01v8 ad=1.16e+12p pd=9.16e+06u as=5.8e+11p ps=4.58e+06u w=2e+06u l=150000u
X94 a_56908_116627# a_55422_117049# a_56820_116627# GND sky130_fd_pr__nfet_01v8 ad=1.16e+12p pd=9.16e+06u as=5.8e+11p ps=4.58e+06u w=2e+06u l=150000u
X95 GND a_43685_125604# a_43472_125692# GND sky130_fd_pr__nfet_01v8 ad=0p pd=0u as=0p ps=0u w=6e+06u l=150000u
X96 ibias_bgr a_n13854_75307# VDD VDD sky130_fd_pr__pfet_g5v0d10v5 ad=0p pd=0u as=0p ps=0u w=1e+06u l=500000u
X97 GND a_82405_120224# sky130_fd_pr__cap_mim_m3_1 l=2.788e+07u w=2.787e+07u
X98 GND a_82405_120224# sky130_fd_pr__cap_mim_m3_1 l=2.788e+07u w=2.787e+07u
X99 VDD a_48527_125699# a_49170_125698# VDD sky130_fd_pr__pfet_01v8 ad=0p pd=0u as=2.32e+12p ps=1.716e+07u w=4e+06u l=150000u
X100 a_65204_75375# w_38426_80141# a_65026_75375# VDD sky130_fd_pr__pfet_01v8 ad=0p pd=0u as=0p ps=0u w=6.66e+06u l=600000u
X101 a_50325_86466# w_44584_82571# a_49825_77079# GND sky130_fd_pr__nfet_01v8 ad=8.12e+12p pd=6.296e+07u as=1.16e+13p ps=9.16e+07u w=2e+06u l=600000u
X102 a_n18539_76541# a_n13854_75307# VDD VDD sky130_fd_pr__pfet_g5v0d10v5 ad=0p pd=0u as=0p ps=0u w=1e+06u l=500000u
X103 GND a_82405_120224# sky130_fd_pr__cap_mim_m3_1 l=2.788e+07u w=2.787e+07u
X104 ibias_bgr a_n13854_75307# VDD VDD sky130_fd_pr__pfet_g5v0d10v5 ad=0p pd=0u as=0p ps=0u w=1e+06u l=500000u
X105 GND a_82405_120224# sky130_fd_pr__cap_mim_m3_1 l=2.788e+07u w=2.787e+07u
X106 a_42806_117063# modi VDD VDD sky130_fd_pr__pfet_01v8 ad=2.32e+12p pd=1.716e+07u as=0p ps=0u w=4e+06u l=150000u
X107 a_54401_120152# a_54423_117058# GND GND sky130_fd_pr__nfet_01v8 ad=5.8e+11p pd=4.58e+06u as=0p ps=0u w=2e+06u l=150000u
X108 GND a_82405_120224# sky130_fd_pr__cap_mim_m3_1 l=2.788e+07u w=2.787e+07u
X109 a_49825_77079# w_44584_77711# GND GND sky130_fd_pr__nfet_01v8 ad=0p pd=0u as=0p ps=0u w=2e+06u l=600000u
X110 a_83917_120224# a_83539_121544# GND sky130_fd_pr__res_xhigh_po w=1.41e+06u l=4.44e+06u
X111 VDD ibias_vco w_n17989_117096# VDD sky130_fd_pr__pfet_01v8 ad=0p pd=0u as=0p ps=0u w=2e+07u l=500000u
X112 ibias_vco ibias_vco VDD VDD sky130_fd_pr__pfet_01v8 ad=0p pd=0u as=0p ps=0u w=2e+07u l=500000u
X113 w_n17989_117096# ibias_vco VDD VDD sky130_fd_pr__pfet_01v8 ad=0p pd=0u as=0p ps=0u w=2e+07u l=500000u
X114 GND a_54401_120152# a_56151_116627# GND sky130_fd_pr__nfet_01v8 ad=0p pd=0u as=1.16e+12p ps=9.16e+06u w=2e+06u l=150000u
X115 a_82405_120224# GND sky130_fd_pr__cap_mim_m3_1 l=2.788e+07u w=2.787e+07u
X116 ibias_bgr a_n13854_75307# VDD VDD sky130_fd_pr__pfet_g5v0d10v5 ad=0p pd=0u as=0p ps=0u w=1e+06u l=500000u
X117 VDD a_n13854_75307# ibias_bgr VDD sky130_fd_pr__pfet_g5v0d10v5 ad=0p pd=0u as=0p ps=0u w=1e+06u l=500000u
X118 ibias_bgr a_n13854_75307# VDD VDD sky130_fd_pr__pfet_g5v0d10v5 ad=0p pd=0u as=0p ps=0u w=1e+06u l=500000u
X119 a_82405_120224# GND sky130_fd_pr__cap_mim_m3_1 l=2.788e+07u w=2.787e+07u
X120 ibias_bgr a_n13854_75307# VDD VDD sky130_fd_pr__pfet_g5v0d10v5 ad=0p pd=0u as=0p ps=0u w=1e+06u l=500000u
X121 a_82405_120224# GND sky130_fd_pr__cap_mim_m3_1 l=2.788e+07u w=2.787e+07u
X122 GND a_82405_120224# sky130_fd_pr__cap_mim_m3_1 l=2.788e+07u w=2.787e+07u
X123 a_82405_120224# GND sky130_fd_pr__cap_mim_m3_1 l=2.788e+07u w=2.787e+07u
X124 a_50325_86466# w_44584_82571# a_49825_77079# GND sky130_fd_pr__nfet_01v8 ad=0p pd=0u as=0p ps=0u w=2e+06u l=600000u
X125 ibias_bgr a_n13854_75307# VDD VDD sky130_fd_pr__pfet_g5v0d10v5 ad=0p pd=0u as=0p ps=0u w=1e+06u l=500000u
X126 GND a_82405_120224# sky130_fd_pr__cap_mim_m3_1 l=2.788e+07u w=2.787e+07u
X127 a_82405_120224# GND sky130_fd_pr__cap_mim_m3_1 l=2.788e+07u w=2.787e+07u
X128 a_42806_117063# modi a_43156_116640# GND sky130_fd_pr__nfet_01v8 ad=1.74e+12p pd=1.258e+07u as=3.48e+12p ps=2.516e+07u w=6e+06u l=150000u
X129 a_55422_117049# a_55440_120049# GND GND sky130_fd_pr__nfet_01v8 ad=5.8e+11p pd=4.58e+06u as=0p ps=0u w=2e+06u l=150000u
X130 GND a_82405_120224# sky130_fd_pr__cap_mim_m3_1 l=2.788e+07u w=2.787e+07u
X131 a_35801_131249# a_35740_132356# GND GND sky130_fd_pr__nfet_01v8 ad=7.25e+11p pd=5.58e+06u as=0p ps=0u w=2.5e+06u l=150000u
X132 w_n17989_117096# ibias_vco VDD VDD sky130_fd_pr__pfet_01v8 ad=0p pd=0u as=0p ps=0u w=2e+07u l=500000u
X133 a_58722_120017# P5 a_59215_116634# GND sky130_fd_pr__nfet_01v8 ad=1.74e+12p pd=1.258e+07u as=3.48e+12p ps=2.516e+07u w=6e+06u l=150000u
X134 VDD a_n13854_75307# a_n18697_76541# VDD sky130_fd_pr__pfet_g5v0d10v5 ad=0p pd=0u as=0p ps=0u w=1e+06u l=500000u
X135 VDD a_n13854_75307# a_n18539_76541# VDD sky130_fd_pr__pfet_g5v0d10v5 ad=0p pd=0u as=0p ps=0u w=1e+06u l=500000u
X136 w_n17989_117096# ibias_vco VDD VDD sky130_fd_pr__pfet_01v8 ad=0p pd=0u as=0p ps=0u w=2e+07u l=500000u
X137 a_53151_116633# a_49518_116626# GND GND sky130_fd_pr__nfet_01v8 ad=0p pd=0u as=0p ps=0u w=6e+06u l=150000u
X138 a_n13854_75307# a_n18755_76638# GND GND sky130_fd_pr__nfet_g5v0d10v5 ad=0p pd=0u as=0p ps=0u w=420000u l=500000u
X139 VDD a_n13854_75307# a_n13854_75307# VDD sky130_fd_pr__pfet_g5v0d10v5 ad=0p pd=0u as=0p ps=0u w=1e+06u l=500000u
X140 a_82405_120224# GND sky130_fd_pr__cap_mim_m3_1 l=2.788e+07u w=2.787e+07u
X141 GND a_82405_120224# sky130_fd_pr__cap_mim_m3_1 l=2.788e+07u w=2.787e+07u
X142 a_82405_120224# GND sky130_fd_pr__cap_mim_m3_1 l=2.788e+07u w=2.787e+07u
X143 a_82405_120224# GND sky130_fd_pr__cap_mim_m3_1 l=2.788e+07u w=2.787e+07u
X144 VDD a_n13854_75307# a_n18697_76541# VDD sky130_fd_pr__pfet_g5v0d10v5 ad=0p pd=0u as=0p ps=0u w=1e+06u l=500000u
X145 w_n17989_117096# ibias_vco VDD VDD sky130_fd_pr__pfet_01v8 ad=0p pd=0u as=0p ps=0u w=2e+07u l=500000u
X146 VDD a_42784_120157# a_44552_120150# VDD sky130_fd_pr__pfet_01v8 ad=0p pd=0u as=2.32e+12p ps=1.716e+07u w=4e+06u l=150000u
X147 GND FB a_45972_116631# GND sky130_fd_pr__nfet_01v8 ad=0p pd=0u as=1.16e+12p ps=9.16e+06u w=2e+06u l=150000u
X148 GND a_48537_120151# a_50287_116626# GND sky130_fd_pr__nfet_01v8 ad=0p pd=0u as=0p ps=0u w=2e+06u l=150000u
X149 GND a_82405_120224# sky130_fd_pr__cap_mim_m3_1 l=2.788e+07u w=2.787e+07u
X150 GND a_82405_120224# sky130_fd_pr__cap_mim_m3_1 l=2.788e+07u w=2.787e+07u
X151 a_82405_120224# GND sky130_fd_pr__cap_mim_m3_1 l=2.788e+07u w=2.787e+07u
X152 GND a_n13854_75307# a_n8798_81185# GND sky130_fd_pr__nfet_g5v0d10v5 ad=0p pd=0u as=1.218e+11p ps=1.42e+06u w=420000u l=2e+07u
X153 GND a_82405_120224# sky130_fd_pr__cap_mim_m3_1 l=2.788e+07u w=2.787e+07u
X154 a_65204_75375# w_38426_80141# a_65026_75375# VDD sky130_fd_pr__pfet_01v8 ad=0p pd=0u as=0p ps=0u w=6.66e+06u l=600000u
X155 a_50325_86466# w_44584_82571# a_49825_77079# GND sky130_fd_pr__nfet_01v8 ad=0p pd=0u as=0p ps=0u w=2e+06u l=600000u
X156 a_44535_116631# a_43823_120053# a_44109_120053# GND sky130_fd_pr__nfet_01v8 ad=0p pd=0u as=5.8e+11p ps=4.58e+06u w=2e+06u l=150000u
X157 VDD a_n13854_75307# ibias_bgr VDD sky130_fd_pr__pfet_g5v0d10v5 ad=0p pd=0u as=0p ps=0u w=1e+06u l=500000u
X158 GND a_82405_120224# sky130_fd_pr__cap_mim_m3_1 l=2.788e+07u w=2.787e+07u
X159 a_64368_116636# a_62677_116628# GND GND sky130_fd_pr__nfet_01v8 ad=3.48e+12p pd=2.516e+07u as=0p ps=0u w=6e+06u l=150000u
X160 VDD ibias_cp ibias_cp VDD sky130_fd_pr__pfet_01v8 ad=0p pd=0u as=0p ps=0u w=1e+07u l=150000u
X161 ibias_bgr a_n13854_75307# VDD VDD sky130_fd_pr__pfet_g5v0d10v5 ad=0p pd=0u as=0p ps=0u w=1e+06u l=500000u
X162 ibias_bgr a_n13854_75307# VDD VDD sky130_fd_pr__pfet_g5v0d10v5 ad=0p pd=0u as=0p ps=0u w=1e+06u l=500000u
X163 a_60257_120153# a_60280_117059# GND GND sky130_fd_pr__nfet_01v8 ad=5.8e+11p pd=4.58e+06u as=0p ps=0u w=2e+06u l=150000u
X164 a_47105_120022# P7 a_47598_116639# GND sky130_fd_pr__nfet_01v8 ad=1.74e+12p pd=1.258e+07u as=3.48e+12p ps=2.516e+07u w=6e+06u l=150000u
X165 VDD a_n13854_75307# ibias_bgr VDD sky130_fd_pr__pfet_g5v0d10v5 ad=0p pd=0u as=0p ps=0u w=1e+06u l=500000u
X166 GND a_82405_120224# sky130_fd_pr__cap_mim_m3_1 l=2.788e+07u w=2.787e+07u
X167 GND a_82405_120224# sky130_fd_pr__cap_mim_m3_1 l=2.788e+07u w=2.787e+07u
X168 a_50819_122587# a_50423_122587# VDD VDD sky130_fd_pr__pfet_01v8 ad=2.32e+12p pd=1.716e+07u as=0p ps=0u w=4e+06u l=150000u
X169 VDD a_54401_120152# a_56169_120146# VDD sky130_fd_pr__pfet_01v8 ad=0p pd=0u as=2.32e+12p ps=1.716e+07u w=4e+06u l=150000u
X170 a_45027_126501# a_44638_122582# GND GND sky130_fd_pr__nfet_01v8 ad=1.16e+12p pd=9.16e+06u as=0p ps=0u w=2e+06u l=150000u
X171 vctrl vn vctrl GND sky130_fd_pr__nfet_01v8_lvt ad=0p pd=0u as=0p ps=0u w=1.7e+07u l=8e+06u
X172 a_56169_120146# a_55422_117049# a_55726_120049# VDD sky130_fd_pr__pfet_01v8 ad=0p pd=0u as=1.16e+12p ps=8.58e+06u w=4e+06u l=150000u
X173 GND a_82405_120224# sky130_fd_pr__cap_mim_m3_1 l=2.788e+07u w=2.787e+07u
X174 a_51574_126514# a_51526_126426# GND GND sky130_fd_pr__nfet_01v8 ad=1.16e+12p pd=9.16e+06u as=0p ps=0u w=2e+06u l=150000u
X175 ibias_bgr a_n13854_75307# VDD VDD sky130_fd_pr__pfet_g5v0d10v5 ad=0p pd=0u as=0p ps=0u w=1e+06u l=500000u
X176 a_n13854_75307# a_n13854_75307# VDD VDD sky130_fd_pr__pfet_g5v0d10v5 ad=0p pd=0u as=0p ps=0u w=1e+06u l=500000u
X177 VDD a_n13854_75307# ibias_bgr VDD sky130_fd_pr__pfet_g5v0d10v5 ad=0p pd=0u as=0p ps=0u w=1e+06u l=500000u
X178 w_44584_77711# w_44584_82571# a_53147_86466# GND sky130_fd_pr__nfet_01v8 ad=5.8e+11p pd=4.58e+06u as=1.16e+12p ps=9.16e+06u w=2e+06u l=600000u
X179 a_82405_120224# GND sky130_fd_pr__cap_mim_m3_1 l=2.788e+07u w=2.787e+07u
X180 a_82405_120224# GND sky130_fd_pr__cap_mim_m3_1 l=2.788e+07u w=2.787e+07u
X181 a_65204_75375# w_38426_80141# a_65026_75375# VDD sky130_fd_pr__pfet_01v8 ad=0p pd=0u as=0p ps=0u w=6.66e+06u l=600000u
X182 GND vp vn GND sky130_fd_pr__nfet_01v8 ad=0p pd=0u as=1.94e+13p ps=1.2194e+08u w=2e+07u l=150000u
X183 a_n18697_76541# a_n13854_75307# VDD VDD sky130_fd_pr__pfet_g5v0d10v5 ad=0p pd=0u as=0p ps=0u w=1e+06u l=500000u
X184 GND a_n18608_82354# a_n18608_82354# GND sky130_fd_pr__nfet_g5v0d10v5 ad=0p pd=0u as=0p ps=0u w=420000u l=500000u
X185 GND a_82405_120224# sky130_fd_pr__cap_mim_m3_1 l=2.788e+07u w=2.787e+07u
X186 a_82405_120224# GND sky130_fd_pr__cap_mim_m3_1 l=2.788e+07u w=2.787e+07u
X187 w_38426_80141# w_44584_80141# VDD sky130_fd_pr__res_iso_pw w=2.65e+06u l=3e+07u
X188 VDD ibias_vco w_n17989_117096# VDD sky130_fd_pr__pfet_01v8 ad=0p pd=0u as=0p ps=0u w=2e+07u l=500000u
X189 a_59215_116634# a_55440_120049# a_59015_116634# GND sky130_fd_pr__nfet_01v8 ad=0p pd=0u as=3.48e+12p ps=2.516e+07u w=6e+06u l=150000u
X190 VDD a_n13854_75307# a_n13854_75307# VDD sky130_fd_pr__pfet_g5v0d10v5 ad=0p pd=0u as=0p ps=0u w=1e+06u l=500000u
X191 a_62483_126509# a_62094_122590# GND GND sky130_fd_pr__nfet_01v8 ad=1.16e+12p pd=9.16e+06u as=0p ps=0u w=2e+06u l=150000u
X192 VDD vp vco_out VDD sky130_fd_pr__pfet_01v8 ad=0p pd=0u as=1.135e+13p ps=7.454e+07u w=5e+06u l=150000u
X193 a_n18697_76541# a_n13854_75307# VDD VDD sky130_fd_pr__pfet_g5v0d10v5 ad=0p pd=0u as=0p ps=0u w=1e+06u l=500000u
X194 GND a_82405_120224# sky130_fd_pr__cap_mim_m3_1 l=2.788e+07u w=2.787e+07u
X195 a_82405_120224# GND sky130_fd_pr__cap_mim_m3_1 l=2.788e+07u w=2.787e+07u
X196 a_n18539_76541# a_n13854_75307# VDD VDD sky130_fd_pr__pfet_g5v0d10v5 ad=0p pd=0u as=0p ps=0u w=1e+06u l=500000u
X197 a_50825_77079# a_60093_75010# a_79145_83670# GND sky130_fd_pr__nfet_01v8 ad=1.74e+12p pd=1.432e+07u as=2.9e+11p ps=2.58e+06u w=1e+06u l=150000u
X198 ibias_bgr a_n13854_75307# VDD VDD sky130_fd_pr__pfet_g5v0d10v5 ad=0p pd=0u as=0p ps=0u w=1e+06u l=500000u
X199 a_82405_120224# GND sky130_fd_pr__cap_mim_m3_1 l=2.788e+07u w=2.787e+07u
X200 a_82405_120224# GND sky130_fd_pr__cap_mim_m3_1 l=2.788e+07u w=2.787e+07u
X201 a_82405_120224# GND sky130_fd_pr__cap_mim_m3_1 l=2.788e+07u w=2.787e+07u
X202 a_50305_120145# a_49558_117048# a_49861_120048# VDD sky130_fd_pr__pfet_01v8 ad=2.32e+12p pd=1.716e+07u as=1.16e+12p ps=8.58e+06u w=4e+06u l=150000u
X203 a_56926_120146# a_55440_120049# a_56820_116627# VDD sky130_fd_pr__pfet_01v8 ad=2.32e+12p pd=1.716e+07u as=1.16e+12p ps=8.58e+06u w=4e+06u l=150000u
X204 a_45033_122582# a_44638_122582# VDD VDD sky130_fd_pr__pfet_01v8 ad=2.32e+12p pd=1.716e+07u as=0p ps=0u w=4e+06u l=150000u
X205 ibias_bgr a_n13854_75307# VDD VDD sky130_fd_pr__pfet_g5v0d10v5 ad=0p pd=0u as=0p ps=0u w=1e+06u l=500000u
X206 a_82405_120224# GND sky130_fd_pr__cap_mim_m3_1 l=2.788e+07u w=2.787e+07u
X207 a_65204_75375# w_38426_80141# a_65026_75375# VDD sky130_fd_pr__pfet_01v8 ad=0p pd=0u as=0p ps=0u w=6.66e+06u l=600000u
X208 a_50325_86466# w_44584_82571# a_49825_77079# GND sky130_fd_pr__nfet_01v8 ad=0p pd=0u as=0p ps=0u w=2e+06u l=600000u
X209 VDD a_n13854_75307# ibias_bgr VDD sky130_fd_pr__pfet_g5v0d10v5 ad=0p pd=0u as=0p ps=0u w=1e+06u l=500000u
X210 a_82405_120224# GND sky130_fd_pr__cap_mim_m3_1 l=2.788e+07u w=2.787e+07u
X211 a_56678_126509# a_56289_122590# GND GND sky130_fd_pr__nfet_01v8 ad=1.16e+12p pd=9.16e+06u as=0p ps=0u w=2e+06u l=150000u
X212 a_63246_122590# a_63196_126429# VDD VDD sky130_fd_pr__pfet_01v8 ad=2.32e+12p pd=1.716e+07u as=0p ps=0u w=4e+06u l=150000u
X213 VDD ibias_vco w_n17989_117096# VDD sky130_fd_pr__pfet_01v8 ad=0p pd=0u as=0p ps=0u w=2e+07u l=500000u
X214 GND a_82405_120224# sky130_fd_pr__cap_mim_m3_1 l=2.788e+07u w=2.787e+07u
X215 a_48537_120151# a_48559_117057# GND GND sky130_fd_pr__nfet_01v8 ad=5.8e+11p pd=4.58e+06u as=0p ps=0u w=2e+06u l=150000u
X216 a_47598_116639# a_43823_120053# a_47398_116639# GND sky130_fd_pr__nfet_01v8 ad=0p pd=0u as=3.48e+12p ps=2.516e+07u w=6e+06u l=150000u
X217 a_55470_116627# a_55422_117049# a_55382_116627# GND sky130_fd_pr__nfet_01v8 ad=1.16e+12p pd=9.16e+06u as=5.8e+11p ps=4.58e+06u w=2e+06u l=150000u
X218 a_82405_120224# GND sky130_fd_pr__cap_mim_m3_1 l=2.788e+07u w=2.787e+07u
X219 a_82405_120224# GND sky130_fd_pr__cap_mim_m3_1 l=2.788e+07u w=2.787e+07u
X220 a_82405_120224# GND sky130_fd_pr__cap_mim_m3_1 l=2.788e+07u w=2.787e+07u
X221 w_n17989_117096# ibias_vco VDD VDD sky130_fd_pr__pfet_01v8 ad=0p pd=0u as=0p ps=0u w=2e+07u l=500000u
X222 a_55336_125613# a_49170_125698# a_56684_122590# VDD sky130_fd_pr__pfet_01v8 ad=1.16e+12p pd=8.58e+06u as=2.32e+12p ps=1.716e+07u w=4e+06u l=150000u
X223 a_65026_75375# w_44584_80141# VDD VDD sky130_fd_pr__pfet_01v8 ad=0p pd=0u as=0p ps=0u w=6.66e+06u l=600000u
X224 VDD a_n13854_75307# ibias_bgr VDD sky130_fd_pr__pfet_g5v0d10v5 ad=0p pd=0u as=0p ps=0u w=1e+06u l=500000u
X225 ibias_bgr a_n13854_75307# VDD VDD sky130_fd_pr__pfet_g5v0d10v5 ad=0p pd=0u as=0p ps=0u w=1e+06u l=500000u
X226 VDD a_42806_117063# a_42784_120157# VDD sky130_fd_pr__pfet_01v8 ad=0p pd=0u as=1.16e+12p ps=8.58e+06u w=4e+06u l=150000u
X227 a_n13854_75307# a_n18755_76638# GND GND sky130_fd_pr__nfet_g5v0d10v5 ad=0p pd=0u as=0p ps=0u w=420000u l=500000u
X228 GND a_82405_120224# sky130_fd_pr__cap_mim_m3_1 l=2.788e+07u w=2.787e+07u
X229 GND VOP sky130_fd_pr__cap_mim_m3_1 l=2.506e+07u w=2.506e+07u
X230 a_56684_122590# a_56289_122590# VDD VDD sky130_fd_pr__pfet_01v8 ad=0p pd=0u as=0p ps=0u w=4e+06u l=150000u
X231 VDD vn a_5499_107251# VDD sky130_fd_pr__pfet_01v8 ad=0p pd=0u as=1.135e+13p ps=7.454e+07u w=5e+06u l=150000u
X232 a_65204_75375# a_41574_90047# VOP VDD sky130_fd_pr__pfet_01v8 ad=0p pd=0u as=2.9e+12p ps=2.058e+07u w=1e+07u l=150000u
X233 ibias_bgr a_n13854_75307# VDD VDD sky130_fd_pr__pfet_g5v0d10v5 ad=0p pd=0u as=0p ps=0u w=1e+06u l=500000u
X234 a_82405_120224# GND sky130_fd_pr__cap_mim_m3_1 l=2.788e+07u w=2.787e+07u
X235 VDD w_44584_80141# a_79145_83670# VDD sky130_fd_pr__pfet_01v8 ad=0p pd=0u as=2.61e+12p ps=1.974e+07u w=4e+06u l=600000u
X236 GND a_82405_120224# sky130_fd_pr__cap_mim_m3_1 l=2.788e+07u w=2.787e+07u
X237 a_n18697_76541# a_n13854_75307# VDD VDD sky130_fd_pr__pfet_g5v0d10v5 ad=0p pd=0u as=0p ps=0u w=1e+06u l=500000u
X238 a_54423_117058# a_49518_116626# VDD VDD sky130_fd_pr__pfet_01v8 ad=2.32e+12p pd=1.716e+07u as=0p ps=0u w=4e+06u l=150000u
X239 ibias_bgr a_n13854_75307# VDD VDD sky130_fd_pr__pfet_g5v0d10v5 ad=0p pd=0u as=0p ps=0u w=1e+06u l=500000u
X240 ibias_bgr a_n13854_75307# VDD VDD sky130_fd_pr__pfet_g5v0d10v5 ad=0p pd=0u as=0p ps=0u w=1e+06u l=500000u
X241 a_54773_116635# a_49576_120048# GND GND sky130_fd_pr__nfet_01v8 ad=3.48e+12p pd=2.516e+07u as=0p ps=0u w=6e+06u l=150000u
X242 a_50325_86466# w_44584_82571# a_49825_77079# GND sky130_fd_pr__nfet_01v8 ad=0p pd=0u as=0p ps=0u w=2e+06u l=600000u
X243 GND a_82405_120224# sky130_fd_pr__cap_mim_m3_1 l=2.788e+07u w=2.787e+07u
X244 VDD a_n13854_75307# ibias_bgr VDD sky130_fd_pr__pfet_g5v0d10v5 ad=0p pd=0u as=0p ps=0u w=1e+06u l=500000u
X245 VDD a_n13854_75307# a_n18539_76541# VDD sky130_fd_pr__pfet_g5v0d10v5 ad=0p pd=0u as=0p ps=0u w=1e+06u l=500000u
X246 GND VOP sky130_fd_pr__cap_mim_m3_1 l=2.506e+07u w=2.506e+07u
X247 a_45790_122582# a_45740_126421# VDD VDD sky130_fd_pr__pfet_01v8 ad=2.32e+12p pd=1.716e+07u as=0p ps=0u w=4e+06u l=150000u
X248 a_58511_116635# a_56820_116627# GND GND sky130_fd_pr__nfet_01v8 ad=3.48e+12p pd=2.516e+07u as=0p ps=0u w=6e+06u l=150000u
X249 GND a_61582_120050# a_61327_116628# GND sky130_fd_pr__nfet_01v8 ad=0p pd=0u as=1.16e+12p ps=9.16e+06u w=2e+06u l=150000u
X250 VOP dn a_50325_86466# GND sky130_fd_pr__nfet_01v8 ad=1.16e+12p pd=8.58e+06u as=0p ps=0u w=4e+06u l=150000u
X251 a_55584_126507# a_49170_125698# VDD VDD sky130_fd_pr__pfet_01v8 ad=1.16e+12p pd=8.58e+06u as=0p ps=0u w=4e+06u l=150000u
X252 a_82405_120224# GND sky130_fd_pr__cap_mim_m3_1 l=2.788e+07u w=2.787e+07u
X253 VDD a_n13854_75307# ibias_bgr VDD sky130_fd_pr__pfet_g5v0d10v5 ad=0p pd=0u as=0p ps=0u w=1e+06u l=500000u
X254 up a_36275_132468# GND GND sky130_fd_pr__nfet_01v8 ad=7.25e+11p pd=5.58e+06u as=0p ps=0u w=2.5e+06u l=150000u
X255 a_65026_75375# w_44584_80141# VDD VDD sky130_fd_pr__pfet_01v8 ad=0p pd=0u as=0p ps=0u w=6.66e+06u l=600000u
X256 a_n18539_76541# a_n13854_75307# VDD VDD sky130_fd_pr__pfet_g5v0d10v5 ad=0p pd=0u as=0p ps=0u w=1e+06u l=500000u
X257 a_82405_120224# GND sky130_fd_pr__cap_mim_m3_1 l=2.788e+07u w=2.787e+07u
X258 ibias_bgr a_n13854_75307# VDD VDD sky130_fd_pr__pfet_g5v0d10v5 ad=0p pd=0u as=0p ps=0u w=1e+06u l=500000u
X259 GND a_82405_120224# sky130_fd_pr__cap_mim_m3_1 l=2.788e+07u w=2.787e+07u
X260 a_83917_120224# a_84295_121544# GND sky130_fd_pr__res_xhigh_po w=1.41e+06u l=4.44e+06u
X261 GND a_82405_120224# sky130_fd_pr__cap_mim_m3_1 l=2.788e+07u w=2.787e+07u
X262 a_43823_120053# a_52858_120016# VDD VDD sky130_fd_pr__pfet_01v8 ad=0p pd=0u as=0p ps=0u w=4e+06u l=150000u
X263 ibias_cp ibias_cp VDD VDD sky130_fd_pr__pfet_01v8 ad=0p pd=0u as=0p ps=0u w=1e+07u l=150000u
X264 ibias_bgr a_n13854_75307# VDD VDD sky130_fd_pr__pfet_g5v0d10v5 ad=0p pd=0u as=0p ps=0u w=1e+06u l=500000u
X265 VDD a_n13854_75307# a_n13854_75307# VDD sky130_fd_pr__pfet_g5v0d10v5 ad=0p pd=0u as=0p ps=0u w=1e+06u l=500000u
X266 a_82405_120224# GND sky130_fd_pr__cap_mim_m3_1 l=2.788e+07u w=2.787e+07u
X267 GND a_47163_125604# a_48815_125699# GND sky130_fd_pr__nfet_01v8 ad=0p pd=0u as=3.48e+12p ps=2.516e+07u w=6e+06u l=150000u
X268 VDD a_n13854_75307# ibias_bgr VDD sky130_fd_pr__pfet_g5v0d10v5 ad=0p pd=0u as=0p ps=0u w=1e+06u l=500000u
X269 a_50325_86466# w_44584_82571# a_49825_77079# GND sky130_fd_pr__nfet_01v8 ad=0p pd=0u as=0p ps=0u w=2e+06u l=600000u
X270 GND a_82405_120224# sky130_fd_pr__cap_mim_m3_1 l=2.788e+07u w=2.787e+07u
X271 a_82405_120224# GND sky130_fd_pr__cap_mim_m3_1 l=2.788e+07u w=2.787e+07u
X272 GND a_49471_125610# a_49258_125698# GND sky130_fd_pr__nfet_01v8 ad=0p pd=0u as=0p ps=0u w=6e+06u l=150000u
X273 vco_out vp VDD VDD sky130_fd_pr__pfet_01v8 ad=0p pd=0u as=0p ps=0u w=5e+06u l=150000u
X274 VDD a_n13854_75307# a_n13854_75307# VDD sky130_fd_pr__pfet_g5v0d10v5 ad=0p pd=0u as=0p ps=0u w=1e+06u l=500000u
X275 a_n18755_76638# a_n18608_82354# GND GND sky130_fd_pr__nfet_g5v0d10v5 ad=4.872e+11p pd=5.68e+06u as=0p ps=0u w=420000u l=500000u
X276 GND a_82405_120224# sky130_fd_pr__cap_mim_m3_1 l=2.788e+07u w=2.787e+07u