* NGSPICE file created from integer_pll_2.ext - technology: sky130A

.subckt integer_pll_pex VOP REF ibias_bgr ibias_vco ibias_cp FB vp vctrl modi vn dn
+ up vco_out P0 P1 P2 P7 P6 P5 P4 P3 modo VDD GND
X0 VDD vco_out a_42742_125693# VDD sky130_fd_pr__pfet_01v8 ad=3.69478e+14p pd=2.61802e+09u as=3.48e+12p ps=2.574e+07u w=4 l=0.15
X1 a_81271_120224# a_81649_121544# GND sky130_fd_pr__res_xhigh_po w=1.41 l=4.44
X2 a_n18608_82354# a_n18608_82354# GND GND sky130_fd_pr__nfet_g5v0d10v5 ad=4.872e+11p pd=5.68e+06u as=1.827e+12p ps=2.13e+07u w=0.42 l=0.5
X3 a_n18608_82354# a_n18539_76541# a_n18597_76638# VDD sky130_fd_pr__pfet_g5v0d10v5 ad=1.305e+13p pd=9.174e+07u as=2.668e+13p ps=1.8864e+08u w=1.5e+01 l=0.5
X4 a_46076_122582# vco_out a_45788_126509# GND sky130_fd_pr__nfet_01v8 ad=5.8e+11p pd=4.58e+06u as=1.16e+12p ps=9.16e+06u w=2 l=0.15
X5 ibias_bgr a_n13854_75307# VDD VDD sky130_fd_pr__pfet_g5v0d10v5 ad=2.9e+13p pd=2.58e+08u as=5.684e+13p ps=4.8364e+08u w=1 l=0.5
X6 a_82405_120224# GND sky130_fd_pr__cap_mim_m3_1 l=2.788e+01 w=2.787e+01
X7 a_82027_120224# a_81649_121544# GND sky130_fd_pr__res_xhigh_po w=1.41 l=4.44
X8 a_n11913_83762# a_n12291_86194# GND sky130_fd_pr__res_xhigh_po w=1.41 l=1e+01
X9 ibias_bgr a_n13854_75307# VDD VDD sky130_fd_pr__pfet_g5v0d10v5 ad=0p pd=0u as=0p ps=0u w=1 l=0.5
X10 VDD a_n13854_75307# ibias_bgr VDD sky130_fd_pr__pfet_g5v0d10v5 ad=0p pd=0u as=0p ps=0u w=1 l=0.5
X11 VDD a_n13854_75307# ibias_bgr VDD sky130_fd_pr__pfet_g5v0d10v5 ad=0p pd=0u as=0p ps=0u w=1 l=0.5
X12 VDD ibias_vco w_n17989_117096# VDD sky130_fd_pr__pfet_01v8 ad=0p pd=0u as=2.333e+14p ps=1.55838e+09u w=2e+01 l=0.5
X13 VDD a_n13854_75307# ibias_bgr VDD sky130_fd_pr__pfet_g5v0d10v5 ad=0p pd=0u as=0p ps=0u w=1 l=0.5
X14 a_82405_120224# GND sky130_fd_pr__cap_mim_m3_1 l=2.788e+01 w=2.787e+01
X15 a_82405_120224# GND sky130_fd_pr__cap_mim_m3_1 l=2.788e+01 w=2.787e+01
X16 a_62008_116628# a_60840_125701# a_61582_120050# GND sky130_fd_pr__nfet_01v8 ad=1.16e+12p pd=9.16e+06u as=5.8e+11p ps=4.58e+06u w=2 l=0.15
X17 a_48559_117057# a_43766_116631# a_48908_116634# GND sky130_fd_pr__nfet_01v8 ad=1.74e+12p pd=1.258e+07u as=3.48e+12p ps=2.516e+07u w=6 l=0.15
X18 GND a_82405_120224# sky130_fd_pr__cap_mim_m3_1 l=2.788e+01 w=2.787e+01
X19 ibias_bgr a_n13854_75307# VDD VDD sky130_fd_pr__pfet_g5v0d10v5 ad=0p pd=0u as=0p ps=0u w=1 l=0.5
X20 VDD a_n13854_75307# a_n13854_75307# VDD sky130_fd_pr__pfet_g5v0d10v5 ad=0p pd=0u as=6.38e+12p ps=5.676e+07u w=1 l=0.5
X21 GND a_82405_120224# sky130_fd_pr__cap_mim_m3_1 l=2.788e+01 w=2.787e+01
X22 a_82405_120224# GND sky130_fd_pr__cap_mim_m3_1 l=2.788e+01 w=2.787e+01
X23 GND a_82405_120224# sky130_fd_pr__cap_mim_m3_1 l=2.788e+01 w=2.787e+01
X24 VDD VDD VDD sky130_fd_pr__res_iso_pw w=2.65 l=3e+01
X25 GND a_82405_120224# sky130_fd_pr__cap_mim_m3_1 l=2.788e+01 w=2.787e+01
X26 ibias_bgr a_n13854_75307# VDD VDD sky130_fd_pr__pfet_g5v0d10v5 ad=0p pd=0u as=0p ps=0u w=1 l=0.5
X27 ibias_vco ibias_bgr GND GND sky130_fd_pr__nfet_01v8 ad=4.35e+13p pd=3.0348e+08u as=1.93838e+14p ps=1.34568e+09u w=2.5e+01 l=1
X28 ibias_bgr a_n13854_75307# VDD VDD sky130_fd_pr__pfet_g5v0d10v5 ad=0p pd=0u as=0p ps=0u w=1 l=0.5
X29 a_49558_117048# a_49576_120048# GND GND sky130_fd_pr__nfet_01v8 ad=5.8e+11p pd=4.58e+06u as=0p ps=0u w=2 l=0.15
X30 VDD a_n13854_75307# ibias_bgr VDD sky130_fd_pr__pfet_g5v0d10v5 ad=0p pd=0u as=0p ps=0u w=1 l=0.5
X31 VDD VDD VDD sky130_fd_pr__res_iso_pw w=2.65 l=3e+01
X32 a_52858_120016# P6 a_53351_116633# GND sky130_fd_pr__nfet_01v8 ad=1.74e+12p pd=1.258e+07u as=3.48e+12p ps=2.516e+07u w=6 l=0.15
X33 ibias_vco ibias_bgr GND GND sky130_fd_pr__nfet_01v8 ad=0p pd=0u as=0p ps=0u w=2.5e+01 l=1
X34 a_n13854_75307# a_n13854_75307# VDD VDD sky130_fd_pr__pfet_g5v0d10v5 ad=0p pd=0u as=0p ps=0u w=1 l=0.5
X35 a_43472_125692# a_42742_125693# a_43384_125692# GND sky130_fd_pr__nfet_01v8 ad=3.48e+12p pd=2.516e+07u as=1.74e+12p ps=1.258e+07u w=6 l=0.15
X36 ibias_cp ibias_cp VDD VDD sky130_fd_pr__pfet_01v8 ad=1.24e+13p pd=8.248e+07u as=0p ps=0u w=1e+01 l=0.15
X37 ibias_bgr a_n13854_75307# VDD VDD sky130_fd_pr__pfet_g5v0d10v5 ad=0p pd=0u as=0p ps=0u w=1 l=0.5
X38 VDD ibias_vco w_n17989_117096# VDD sky130_fd_pr__pfet_01v8 ad=0p pd=0u as=0p ps=0u w=2e+01 l=0.5
X39 ibias_bgr a_n13854_75307# VDD VDD sky130_fd_pr__pfet_g5v0d10v5 ad=0p pd=0u as=0p ps=0u w=1 l=0.5
X40 w_n17989_117096# ibias_vco VDD VDD sky130_fd_pr__pfet_01v8 ad=0p pd=0u as=0p ps=0u w=2e+01 l=0.5
X41 VDD ibias_vco w_n17989_117096# VDD sky130_fd_pr__pfet_01v8 ad=0p pd=0u as=0p ps=0u w=2e+01 l=0.5
X42 GND GND GND sky130_fd_pr__res_xhigh_po w=1.41 l=4.44
X43 VDD a_n13854_75307# a_n18539_76541# VDD sky130_fd_pr__pfet_g5v0d10v5 ad=0p pd=0u as=1.45e+13p ps=1.0696e+08u w=1 l=0.5
X44 a_65204_75375# w_38426_80141# a_65026_75375# VDD sky130_fd_pr__pfet_01v8 ad=2.5114e+13p pd=1.8016e+08u as=3.8628e+13p ps=2.78e+08u w=6.66 l=0.6
X45 GND a_82405_120224# sky130_fd_pr__cap_mim_m3_1 l=2.788e+01 w=2.787e+01
X46 a_82405_120224# GND sky130_fd_pr__cap_mim_m3_1 l=2.788e+01 w=2.787e+01
X47 GND a_82405_120224# sky130_fd_pr__cap_mim_m3_1 l=2.788e+01 w=2.787e+01
X48 GND a_82405_120224# sky130_fd_pr__cap_mim_m3_1 l=2.788e+01 w=2.787e+01
X49 a_43823_120053# a_50956_116626# VDD VDD sky130_fd_pr__pfet_01v8 ad=2.32e+12p pd=1.716e+07u as=0p ps=0u w=4 l=0.15
X50 VDD a_n13854_75307# ibias_bgr VDD sky130_fd_pr__pfet_g5v0d10v5 ad=0p pd=0u as=0p ps=0u w=1 l=0.5
X51 GND a_82405_120224# sky130_fd_pr__cap_mim_m3_1 l=2.788e+01 w=2.787e+01
X52 a_82405_120224# GND sky130_fd_pr__cap_mim_m3_1 l=2.788e+01 w=2.787e+01
X53 a_62094_122590# a_61388_126507# a_61808_122590# VDD sky130_fd_pr__pfet_01v8 ad=1.16e+12p pd=8.58e+06u as=2.32e+12p ps=1.716e+07u w=4 l=0.15
X54 a_n13854_75307# a_n18755_76638# GND GND sky130_fd_pr__nfet_g5v0d10v5 ad=1.218e+12p pd=1.42e+07u as=0p ps=0u w=0.42 l=0.5
X55 VDD a_n13854_75307# ibias_bgr VDD sky130_fd_pr__pfet_g5v0d10v5 ad=0p pd=0u as=0p ps=0u w=1 l=0.5
X56 VDD ibias_vco ibias_vco VDD sky130_fd_pr__pfet_01v8 ad=0p pd=0u as=2.9e+13p ps=2.029e+08u w=2e+01 l=0.5
X57 a_49258_125698# a_48527_125699# a_49170_125698# GND sky130_fd_pr__nfet_01v8 ad=3.48e+12p pd=2.516e+07u as=1.74e+12p ps=1.258e+07u w=6 l=0.15
X58 a_82405_120224# GND sky130_fd_pr__cap_mim_m3_1 l=2.788e+01 w=2.787e+01
X59 a_68184_88403# a_60093_75010# GND VDD sky130_fd_pr__pfet_01v8 ad=4.2514e+12p pd=3.106e+07u as=1.88626e+15p ps=2.05733e+09u w=4 l=0.15
X60 a_80515_120224# a_80137_121544# GND sky130_fd_pr__res_xhigh_po w=1.41 l=4.44
X61 VDD a_n13854_75307# ibias_bgr VDD sky130_fd_pr__pfet_g5v0d10v5 ad=0p pd=0u as=0p ps=0u w=1 l=0.5
X62 VDD a_n13854_75307# ibias_bgr VDD sky130_fd_pr__pfet_g5v0d10v5 ad=0p pd=0u as=0p ps=0u w=1 l=0.5
X63 ibias_bgr a_n13854_75307# VDD VDD sky130_fd_pr__pfet_g5v0d10v5 ad=0p pd=0u as=0p ps=0u w=1 l=0.5
X64 a_82405_120224# GND sky130_fd_pr__cap_mim_m3_1 l=2.788e+01 w=2.787e+01
X65 a_82405_120224# GND sky130_fd_pr__cap_mim_m3_1 l=2.788e+01 w=2.787e+01
X66 VDD a_n13854_75307# ibias_bgr VDD sky130_fd_pr__pfet_g5v0d10v5 ad=0p pd=0u as=0p ps=0u w=1 l=0.5
X67 a_56289_122590# a_55584_126507# a_56003_122590# VDD sky130_fd_pr__pfet_01v8 ad=1.16e+12p pd=8.58e+06u as=2.32e+12p ps=1.716e+07u w=4 l=0.15
X68 vctrl vp vctrl GND sky130_fd_pr__nfet_01v8_lvt ad=1.479e+13p pd=1.0374e+08u as=0p ps=0u w=1.7e+01l=8
X69 GND ibias_bgr ibias_vco GND sky130_fd_pr__nfet_01v8 ad=0p pd=0u as=0p ps=0u w=2.5e+01 l=1
X70 a_82405_120224# GND sky130_fd_pr__cap_mim_m3_1 l=2.788e+01 w=2.787e+01
X71 GND a_36828_132074# dn GND sky130_fd_pr__nfet_01v8 ad=0p pd=0u as=7.25e+11p ps=5.58e+06u w=2.5 l=0.15
X72 modo vco_out a_46471_122582# VDD sky130_fd_pr__pfet_01v8 ad=1.16e+12p pd=8.58e+06u as=2.32e+12p ps=1.716e+07u w=4 l=0.15
X73 a_n18597_76638# a_n13854_75307# VDD VDD sky130_fd_pr__pfet_g5v0d10v5 ad=0p pd=0u as=0p ps=0u w=1 l=0.5
X74 a_82405_120224# GND sky130_fd_pr__cap_mim_m3_1 l=2.788e+01 w=2.787e+01
X75 ibias_vco ibias_bgr GND GND sky130_fd_pr__nfet_01v8 ad=0p pd=0u as=0p ps=0u w=2.5e+01 l=1
X76 GND a_82405_120224# sky130_fd_pr__cap_mim_m3_1 l=2.788e+01 w=2.787e+01
X77 a_35801_131249# REF a_35703_131249# VDD sky130_fd_pr__pfet_01v8 ad=1.16e+12p pd=8.58e+06u as=2.61e+12p ps=1.916e+07u w=4 l=0.2
X78 a_n18697_76541# a_n13854_75307# VDD VDD sky130_fd_pr__pfet_g5v0d10v5 ad=2.9e+12p pd=2.58e+07u as=0p ps=0u w=1 l=0.5
X79 a_82405_120224# GND sky130_fd_pr__cap_mim_m3_1 l=2.788e+01 w=2.787e+01
X80 GND a_82405_120224# sky130_fd_pr__cap_mim_m3_1 l=2.788e+01 w=2.787e+01
X81 VDD ibias_vco ibias_vco VDD sky130_fd_pr__pfet_01v8 ad=0p pd=0u as=0p ps=0u w=2e+01 l=0.5
X82 a_63927_122590# a_63531_122590# VDD VDD sky130_fd_pr__pfet_01v8 ad=2.32e+12p pd=1.716e+07u as=0p ps=0u w=4 l=0.15
X83 a_53351_116633# a_49576_120048# a_53151_116633# GND sky130_fd_pr__nfet_01v8 ad=0p pd=0u as=3.48e+12p ps=2.516e+07u w=6 l=0.15
X84 a_n18597_76638# a_n18539_76541# a_n18608_82354# VDD sky130_fd_pr__pfet_g5v0d10v5 ad=0p pd=0u as=0p ps=0u w=1.5e+01 l=0.5
X85 VDD a_n13854_75307# ibias_bgr VDD sky130_fd_pr__pfet_g5v0d10v5 ad=0p pd=0u as=0p ps=0u w=1 l=0.5
X86 VDD a_n13854_75307# a_n13854_75307# VDD sky130_fd_pr__pfet_g5v0d10v5 ad=0p pd=0u as=0p ps=0u w=1 l=0.5
X87 a_82405_120224# GND sky130_fd_pr__cap_mim_m3_1 l=2.788e+01 w=2.787e+01
X88 VDD ibias_vco w_n17989_117096# VDD sky130_fd_pr__pfet_01v8 ad=0p pd=0u as=0p ps=0u w=2e+01 l=0.5
X89 VDD a_n13854_75307# a_n18539_76541# VDD sky130_fd_pr__pfet_g5v0d10v5 ad=0p pd=0u as=0p ps=0u w=1 l=0.5
X90 GND a_82405_120224# sky130_fd_pr__cap_mim_m3_1 l=2.788e+01 w=2.787e+01
X91 GND a_42784_120157# a_44535_116631# GND sky130_fd_pr__nfet_01v8 ad=0p pd=0u as=1.16e+12p ps=9.16e+06u w=2 l=0.15
X92 a_82405_120224# GND sky130_fd_pr__cap_mim_m3_1 l=2.788e+01 w=2.787e+01
X93 a_50287_116626# a_49576_120048# a_49861_120048# GND sky130_fd_pr__nfet_01v8 ad=1.16e+12p pd=9.16e+06u as=5.8e+11p ps=4.58e+06u w=2 l=0.15
X94 a_56908_116627# a_55422_117049# a_56820_116627# GND sky130_fd_pr__nfet_01v8 ad=1.16e+12p pd=9.16e+06u as=5.8e+11p ps=4.58e+06u w=2 l=0.15
X95 GND a_43685_125604# a_43472_125692# GND sky130_fd_pr__nfet_01v8 ad=0p pd=0u as=0p ps=0u w=6 l=0.15
X96 ibias_bgr a_n13854_75307# VDD VDD sky130_fd_pr__pfet_g5v0d10v5 ad=0p pd=0u as=0p ps=0u w=1 l=0.5
X97 GND a_82405_120224# sky130_fd_pr__cap_mim_m3_1 l=2.788e+01 w=2.787e+01
X98 GND a_82405_120224# sky130_fd_pr__cap_mim_m3_1 l=2.788e+01 w=2.787e+01
X99 VDD a_48527_125699# a_49170_125698# VDD sky130_fd_pr__pfet_01v8 ad=0p pd=0u as=2.32e+12p ps=1.716e+07u w=4 l=0.15
X100 a_65204_75375# w_38426_80141# a_65026_75375# VDD sky130_fd_pr__pfet_01v8 ad=0p pd=0u as=0p ps=0u w=6.66 l=0.6
X101 a_50325_86466# w_44584_82571# a_49825_77079# GND sky130_fd_pr__nfet_01v8 ad=8.12e+12p pd=6.296e+07u as=1.16e+13p ps=9.16e+07u w=2 l=0.6
X102 a_n18539_76541# a_n13854_75307# VDD VDD sky130_fd_pr__pfet_g5v0d10v5 ad=0p pd=0u as=0p ps=0u w=1 l=0.5
X103 GND a_82405_120224# sky130_fd_pr__cap_mim_m3_1 l=2.788e+01 w=2.787e+01
X104 ibias_bgr a_n13854_75307# VDD VDD sky130_fd_pr__pfet_g5v0d10v5 ad=0p pd=0u as=0p ps=0u w=1 l=0.5
X105 GND a_82405_120224# sky130_fd_pr__cap_mim_m3_1 l=2.788e+01 w=2.787e+01
X106 a_42806_117063# modi VDD VDD sky130_fd_pr__pfet_01v8 ad=2.32e+12p pd=1.716e+07u as=0p ps=0u w=4 l=0.15
X107 a_54401_120152# a_54423_117058# GND GND sky130_fd_pr__nfet_01v8 ad=5.8e+11p pd=4.58e+06u as=0p ps=0u w=2 l=0.15
X108 GND a_82405_120224# sky130_fd_pr__cap_mim_m3_1 l=2.788e+01 w=2.787e+01
X109 a_49825_77079# w_44584_77711# GND GND sky130_fd_pr__nfet_01v8 ad=0p pd=0u as=0p ps=0u w=2 l=0.6
X110 a_83917_120224# a_83539_121544# GND sky130_fd_pr__res_xhigh_po w=1.41 l=4.44
X111 VDD ibias_vco w_n17989_117096# VDD sky130_fd_pr__pfet_01v8 ad=0p pd=0u as=0p ps=0u w=2e+01 l=0.5
X112 ibias_vco ibias_vco VDD VDD sky130_fd_pr__pfet_01v8 ad=0p pd=0u as=0p ps=0u w=2e+01 l=0.5
X113 w_n17989_117096# ibias_vco VDD VDD sky130_fd_pr__pfet_01v8 ad=0p pd=0u as=0p ps=0u w=2e+01 l=0.5
X114 GND a_54401_120152# a_56151_116627# GND sky130_fd_pr__nfet_01v8 ad=0p pd=0u as=1.16e+12p ps=9.16e+06u w=2 l=0.15
X115 a_82405_120224# GND sky130_fd_pr__cap_mim_m3_1 l=2.788e+01 w=2.787e+01
X116 ibias_bgr a_n13854_75307# VDD VDD sky130_fd_pr__pfet_g5v0d10v5 ad=0p pd=0u as=0p ps=0u w=1 l=0.5
X117 VDD a_n13854_75307# ibias_bgr VDD sky130_fd_pr__pfet_g5v0d10v5 ad=0p pd=0u as=0p ps=0u w=1 l=0.5
X118 ibias_bgr a_n13854_75307# VDD VDD sky130_fd_pr__pfet_g5v0d10v5 ad=0p pd=0u as=0p ps=0u w=1 l=0.5
X119 a_82405_120224# GND sky130_fd_pr__cap_mim_m3_1 l=2.788e+01 w=2.787e+01
X120 ibias_bgr a_n13854_75307# VDD VDD sky130_fd_pr__pfet_g5v0d10v5 ad=0p pd=0u as=0p ps=0u w=1 l=0.5
X121 a_82405_120224# GND sky130_fd_pr__cap_mim_m3_1 l=2.788e+01 w=2.787e+01
X122 GND a_82405_120224# sky130_fd_pr__cap_mim_m3_1 l=2.788e+01 w=2.787e+01
X123 a_82405_120224# GND sky130_fd_pr__cap_mim_m3_1 l=2.788e+01 w=2.787e+01
X124 a_50325_86466# w_44584_82571# a_49825_77079# GND sky130_fd_pr__nfet_01v8 ad=0p pd=0u as=0p ps=0u w=2 l=0.6
X125 ibias_bgr a_n13854_75307# VDD VDD sky130_fd_pr__pfet_g5v0d10v5 ad=0p pd=0u as=0p ps=0u w=1 l=0.5
X126 GND a_82405_120224# sky130_fd_pr__cap_mim_m3_1 l=2.788e+01 w=2.787e+01
X127 a_82405_120224# GND sky130_fd_pr__cap_mim_m3_1 l=2.788e+01 w=2.787e+01
X128 a_42806_117063# modi a_43156_116640# GND sky130_fd_pr__nfet_01v8 ad=1.74e+12p pd=1.258e+07u as=3.48e+12p ps=2.516e+07u w=6 l=0.15
X129 a_55422_117049# a_55440_120049# GND GND sky130_fd_pr__nfet_01v8 ad=5.8e+11p pd=4.58e+06u as=0p ps=0u w=2 l=0.15
X130 GND a_82405_120224# sky130_fd_pr__cap_mim_m3_1 l=2.788e+01 w=2.787e+01
X131 a_35801_131249# a_35740_132356# GND GND sky130_fd_pr__nfet_01v8 ad=7.25e+11p pd=5.58e+06u as=0p ps=0u w=2.5 l=0.15
X132 w_n17989_117096# ibias_vco VDD VDD sky130_fd_pr__pfet_01v8 ad=0p pd=0u as=0p ps=0u w=2e+01 l=0.5
X133 a_58722_120017# P5 a_59215_116634# GND sky130_fd_pr__nfet_01v8 ad=1.74e+12p pd=1.258e+07u as=3.48e+12p ps=2.516e+07u w=6 l=0.15
X134 VDD a_n13854_75307# a_n18697_76541# VDD sky130_fd_pr__pfet_g5v0d10v5 ad=0p pd=0u as=0p ps=0u w=1 l=0.5
X135 VDD a_n13854_75307# a_n18539_76541# VDD sky130_fd_pr__pfet_g5v0d10v5 ad=0p pd=0u as=0p ps=0u w=1 l=0.5
X136 w_n17989_117096# ibias_vco VDD VDD sky130_fd_pr__pfet_01v8 ad=0p pd=0u as=0p ps=0u w=2e+01 l=0.5
X137 a_53151_116633# a_49518_116626# GND GND sky130_fd_pr__nfet_01v8 ad=0p pd=0u as=0p ps=0u w=6 l=0.15
X138 a_n13854_75307# a_n18755_76638# GND GND sky130_fd_pr__nfet_g5v0d10v5 ad=0p pd=0u as=0p ps=0u w=0.42 l=0.5
X139 VDD a_n13854_75307# a_n13854_75307# VDD sky130_fd_pr__pfet_g5v0d10v5 ad=0p pd=0u as=0p ps=0u w=1 l=0.5
X140 a_82405_120224# GND sky130_fd_pr__cap_mim_m3_1 l=2.788e+01 w=2.787e+01
X141 GND a_82405_120224# sky130_fd_pr__cap_mim_m3_1 l=2.788e+01 w=2.787e+01
X142 a_82405_120224# GND sky130_fd_pr__cap_mim_m3_1 l=2.788e+01 w=2.787e+01
X143 a_82405_120224# GND sky130_fd_pr__cap_mim_m3_1 l=2.788e+01 w=2.787e+01
X144 VDD a_n13854_75307# a_n18697_76541# VDD sky130_fd_pr__pfet_g5v0d10v5 ad=0p pd=0u as=0p ps=0u w=1 l=0.5
X145 w_n17989_117096# ibias_vco VDD VDD sky130_fd_pr__pfet_01v8 ad=0p pd=0u as=0p ps=0u w=2e+01 l=0.5
X146 VDD a_42784_120157# a_44552_120150# VDD sky130_fd_pr__pfet_01v8 ad=0p pd=0u as=2.32e+12p ps=1.716e+07u w=4 l=0.15
X147 GND FB a_45972_116631# GND sky130_fd_pr__nfet_01v8 ad=0p pd=0u as=1.16e+12p ps=9.16e+06u w=2 l=0.15
X148 GND a_48537_120151# a_50287_116626# GND sky130_fd_pr__nfet_01v8 ad=0p pd=0u as=0p ps=0u w=2 l=0.15
X149 GND a_82405_120224# sky130_fd_pr__cap_mim_m3_1 l=2.788e+01 w=2.787e+01
X150 GND a_82405_120224# sky130_fd_pr__cap_mim_m3_1 l=2.788e+01 w=2.787e+01
X151 a_82405_120224# GND sky130_fd_pr__cap_mim_m3_1 l=2.788e+01 w=2.787e+01
X152 GND a_n13854_75307# a_n8798_81185# GND sky130_fd_pr__nfet_g5v0d10v5 ad=0p pd=0u as=1.218e+11p ps=1.42e+06u w=0.42 l=2e+01
X153 GND a_82405_120224# sky130_fd_pr__cap_mim_m3_1 l=2.788e+01 w=2.787e+01
X154 a_65204_75375# w_38426_80141# a_65026_75375# VDD sky130_fd_pr__pfet_01v8 ad=0p pd=0u as=0p ps=0u w=6.66 l=0.6
X155 a_50325_86466# w_44584_82571# a_49825_77079# GND sky130_fd_pr__nfet_01v8 ad=0p pd=0u as=0p ps=0u w=2 l=0.6
X156 a_44535_116631# a_43823_120053# a_44109_120053# GND sky130_fd_pr__nfet_01v8 ad=0p pd=0u as=5.8e+11p ps=4.58e+06u w=2 l=0.15
X157 VDD a_n13854_75307# ibias_bgr VDD sky130_fd_pr__pfet_g5v0d10v5 ad=0p pd=0u as=0p ps=0u w=1 l=0.5
X158 GND a_82405_120224# sky130_fd_pr__cap_mim_m3_1 l=2.788e+01 w=2.787e+01
X159 a_64368_116636# a_62677_116628# GND GND sky130_fd_pr__nfet_01v8 ad=3.48e+12p pd=2.516e+07u as=0p ps=0u w=6 l=0.15
X160 VDD ibias_cp ibias_cp VDD sky130_fd_pr__pfet_01v8 ad=0p pd=0u as=0p ps=0u w=1e+01 l=0.15
X161 ibias_bgr a_n13854_75307# VDD VDD sky130_fd_pr__pfet_g5v0d10v5 ad=0p pd=0u as=0p ps=0u w=1 l=0.5
X162 ibias_bgr a_n13854_75307# VDD VDD sky130_fd_pr__pfet_g5v0d10v5 ad=0p pd=0u as=0p ps=0u w=1 l=0.5
X163 a_60257_120153# a_60280_117059# GND GND sky130_fd_pr__nfet_01v8 ad=5.8e+11p pd=4.58e+06u as=0p ps=0u w=2 l=0.15
X164 a_47105_120022# P7 a_47598_116639# GND sky130_fd_pr__nfet_01v8 ad=1.74e+12p pd=1.258e+07u as=3.48e+12p ps=2.516e+07u w=6 l=0.15
X165 VDD a_n13854_75307# ibias_bgr VDD sky130_fd_pr__pfet_g5v0d10v5 ad=0p pd=0u as=0p ps=0u w=1 l=0.5
X166 GND a_82405_120224# sky130_fd_pr__cap_mim_m3_1 l=2.788e+01 w=2.787e+01
X167 GND a_82405_120224# sky130_fd_pr__cap_mim_m3_1 l=2.788e+01 w=2.787e+01
X168 a_50819_122587# a_50423_122587# VDD VDD sky130_fd_pr__pfet_01v8 ad=2.32e+12p pd=1.716e+07u as=0p ps=0u w=4 l=0.15
X169 VDD a_54401_120152# a_56169_120146# VDD sky130_fd_pr__pfet_01v8 ad=0p pd=0u as=2.32e+12p ps=1.716e+07u w=4 l=0.15
X170 a_45027_126501# a_44638_122582# GND GND sky130_fd_pr__nfet_01v8 ad=1.16e+12p pd=9.16e+06u as=0p ps=0u w=2 l=0.15
X171 vctrl vn vctrl GND sky130_fd_pr__nfet_01v8_lvt ad=0p pd=0u as=0p ps=0u w=1.7e+01l=8
X172 a_56169_120146# a_55422_117049# a_55726_120049# VDD sky130_fd_pr__pfet_01v8 ad=0p pd=0u as=1.16e+12p ps=8.58e+06u w=4 l=0.15
X173 GND a_82405_120224# sky130_fd_pr__cap_mim_m3_1 l=2.788e+01 w=2.787e+01
X174 a_51574_126514# a_51526_126426# GND GND sky130_fd_pr__nfet_01v8 ad=1.16e+12p pd=9.16e+06u as=0p ps=0u w=2 l=0.15
X175 ibias_bgr a_n13854_75307# VDD VDD sky130_fd_pr__pfet_g5v0d10v5 ad=0p pd=0u as=0p ps=0u w=1 l=0.5
X176 a_n13854_75307# a_n13854_75307# VDD VDD sky130_fd_pr__pfet_g5v0d10v5 ad=0p pd=0u as=0p ps=0u w=1 l=0.5
X177 VDD a_n13854_75307# ibias_bgr VDD sky130_fd_pr__pfet_g5v0d10v5 ad=0p pd=0u as=0p ps=0u w=1 l=0.5
X178 w_44584_77711# w_44584_82571# a_53147_86466# GND sky130_fd_pr__nfet_01v8 ad=5.8e+11p pd=4.58e+06u as=1.16e+12p ps=9.16e+06u w=2 l=0.6
X179 a_82405_120224# GND sky130_fd_pr__cap_mim_m3_1 l=2.788e+01 w=2.787e+01
X180 a_82405_120224# GND sky130_fd_pr__cap_mim_m3_1 l=2.788e+01 w=2.787e+01
X181 a_65204_75375# w_38426_80141# a_65026_75375# VDD sky130_fd_pr__pfet_01v8 ad=0p pd=0u as=0p ps=0u w=6.66 l=0.6
X182 GND vp vn GND sky130_fd_pr__nfet_01v8 ad=0p pd=0u as=1.94e+13p ps=1.2194e+08u w=2e+01 l=0.15
X183 a_n18697_76541# a_n13854_75307# VDD VDD sky130_fd_pr__pfet_g5v0d10v5 ad=0p pd=0u as=0p ps=0u w=1 l=0.5
X184 GND a_n18608_82354# a_n18608_82354# GND sky130_fd_pr__nfet_g5v0d10v5 ad=0p pd=0u as=0p ps=0u w=0.42 l=0.5
X185 GND a_82405_120224# sky130_fd_pr__cap_mim_m3_1 l=2.788e+01 w=2.787e+01
X186 a_82405_120224# GND sky130_fd_pr__cap_mim_m3_1 l=2.788e+01 w=2.787e+01
X187 w_38426_80141# w_44584_80141# VDD sky130_fd_pr__res_iso_pw w=2.65 l=3e+01
X188 VDD ibias_vco w_n17989_117096# VDD sky130_fd_pr__pfet_01v8 ad=0p pd=0u as=0p ps=0u w=2e+01 l=0.5
X189 a_59215_116634# a_55440_120049# a_59015_116634# GND sky130_fd_pr__nfet_01v8 ad=0p pd=0u as=3.48e+12p ps=2.516e+07u w=6 l=0.15
X190 VDD a_n13854_75307# a_n13854_75307# VDD sky130_fd_pr__pfet_g5v0d10v5 ad=0p pd=0u as=0p ps=0u w=1 l=0.5
X191 a_62483_126509# a_62094_122590# GND GND sky130_fd_pr__nfet_01v8 ad=1.16e+12p pd=9.16e+06u as=0p ps=0u w=2 l=0.15
X192 VDD vp vco_out VDD sky130_fd_pr__pfet_01v8 ad=0p pd=0u as=1.135e+13p ps=7.454e+07u w=5 l=0.15
X193 a_n18697_76541# a_n13854_75307# VDD VDD sky130_fd_pr__pfet_g5v0d10v5 ad=0p pd=0u as=0p ps=0u w=1 l=0.5
X194 GND a_82405_120224# sky130_fd_pr__cap_mim_m3_1 l=2.788e+01 w=2.787e+01
X195 a_82405_120224# GND sky130_fd_pr__cap_mim_m3_1 l=2.788e+01 w=2.787e+01
X196 a_n18539_76541# a_n13854_75307# VDD VDD sky130_fd_pr__pfet_g5v0d10v5 ad=0p pd=0u as=0p ps=0u w=1 l=0.5
X197 a_50825_77079# a_60093_75010# a_79145_83670# GND sky130_fd_pr__nfet_01v8 ad=1.74e+12p pd=1.432e+07u as=2.9e+11p ps=2.58e+06u w=1 l=0.15
X198 ibias_bgr a_n13854_75307# VDD VDD sky130_fd_pr__pfet_g5v0d10v5 ad=0p pd=0u as=0p ps=0u w=1 l=0.5
X199 a_82405_120224# GND sky130_fd_pr__cap_mim_m3_1 l=2.788e+01 w=2.787e+01
X200 a_82405_120224# GND sky130_fd_pr__cap_mim_m3_1 l=2.788e+01 w=2.787e+01
X201 a_82405_120224# GND sky130_fd_pr__cap_mim_m3_1 l=2.788e+01 w=2.787e+01
X202 a_50305_120145# a_49558_117048# a_49861_120048# VDD sky130_fd_pr__pfet_01v8 ad=2.32e+12p pd=1.716e+07u as=1.16e+12p ps=8.58e+06u w=4 l=0.15
X203 a_56926_120146# a_55440_120049# a_56820_116627# VDD sky130_fd_pr__pfet_01v8 ad=2.32e+12p pd=1.716e+07u as=1.16e+12p ps=8.58e+06u w=4 l=0.15
X204 a_45033_122582# a_44638_122582# VDD VDD sky130_fd_pr__pfet_01v8 ad=2.32e+12p pd=1.716e+07u as=0p ps=0u w=4 l=0.15
X205 ibias_bgr a_n13854_75307# VDD VDD sky130_fd_pr__pfet_g5v0d10v5 ad=0p pd=0u as=0p ps=0u w=1 l=0.5
X206 a_82405_120224# GND sky130_fd_pr__cap_mim_m3_1 l=2.788e+01 w=2.787e+01
X207 a_65204_75375# w_38426_80141# a_65026_75375# VDD sky130_fd_pr__pfet_01v8 ad=0p pd=0u as=0p ps=0u w=6.66 l=0.6
X208 a_50325_86466# w_44584_82571# a_49825_77079# GND sky130_fd_pr__nfet_01v8 ad=0p pd=0u as=0p ps=0u w=2 l=0.6
X209 VDD a_n13854_75307# ibias_bgr VDD sky130_fd_pr__pfet_g5v0d10v5 ad=0p pd=0u as=0p ps=0u w=1 l=0.5
X210 a_82405_120224# GND sky130_fd_pr__cap_mim_m3_1 l=2.788e+01 w=2.787e+01
X211 a_56678_126509# a_56289_122590# GND GND sky130_fd_pr__nfet_01v8 ad=1.16e+12p pd=9.16e+06u as=0p ps=0u w=2 l=0.15
X212 a_63246_122590# a_63196_126429# VDD VDD sky130_fd_pr__pfet_01v8 ad=2.32e+12p pd=1.716e+07u as=0p ps=0u w=4 l=0.15
X213 VDD ibias_vco w_n17989_117096# VDD sky130_fd_pr__pfet_01v8 ad=0p pd=0u as=0p ps=0u w=2e+01 l=0.5
X214 GND a_82405_120224# sky130_fd_pr__cap_mim_m3_1 l=2.788e+01 w=2.787e+01
X215 a_48537_120151# a_48559_117057# GND GND sky130_fd_pr__nfet_01v8 ad=5.8e+11p pd=4.58e+06u as=0p ps=0u w=2 l=0.15
X216 a_47598_116639# a_43823_120053# a_47398_116639# GND sky130_fd_pr__nfet_01v8 ad=0p pd=0u as=3.48e+12p ps=2.516e+07u w=6 l=0.15
X217 a_55470_116627# a_55422_117049# a_55382_116627# GND sky130_fd_pr__nfet_01v8 ad=1.16e+12p pd=9.16e+06u as=5.8e+11p ps=4.58e+06u w=2 l=0.15
X218 a_82405_120224# GND sky130_fd_pr__cap_mim_m3_1 l=2.788e+01 w=2.787e+01
X219 a_82405_120224# GND sky130_fd_pr__cap_mim_m3_1 l=2.788e+01 w=2.787e+01
X220 a_82405_120224# GND sky130_fd_pr__cap_mim_m3_1 l=2.788e+01 w=2.787e+01
X221 w_n17989_117096# ibias_vco VDD VDD sky130_fd_pr__pfet_01v8 ad=0p pd=0u as=0p ps=0u w=2e+01 l=0.5
X222 a_55336_125613# a_49170_125698# a_56684_122590# VDD sky130_fd_pr__pfet_01v8 ad=1.16e+12p pd=8.58e+06u as=2.32e+12p ps=1.716e+07u w=4 l=0.15
X223 a_65026_75375# w_44584_80141# VDD VDD sky130_fd_pr__pfet_01v8 ad=0p pd=0u as=0p ps=0u w=6.66 l=0.6
X224 VDD a_n13854_75307# ibias_bgr VDD sky130_fd_pr__pfet_g5v0d10v5 ad=0p pd=0u as=0p ps=0u w=1 l=0.5
X225 ibias_bgr a_n13854_75307# VDD VDD sky130_fd_pr__pfet_g5v0d10v5 ad=0p pd=0u as=0p ps=0u w=1 l=0.5
X226 VDD a_42806_117063# a_42784_120157# VDD sky130_fd_pr__pfet_01v8 ad=0p pd=0u as=1.16e+12p ps=8.58e+06u w=4 l=0.15
X227 a_n13854_75307# a_n18755_76638# GND GND sky130_fd_pr__nfet_g5v0d10v5 ad=0p pd=0u as=0p ps=0u w=0.42 l=0.5
X228 GND a_82405_120224# sky130_fd_pr__cap_mim_m3_1 l=2.788e+01 w=2.787e+01
X229 GND VOP sky130_fd_pr__cap_mim_m3_1 l=2.506e+01 w=2.506e+01
X230 a_56684_122590# a_56289_122590# VDD VDD sky130_fd_pr__pfet_01v8 ad=0p pd=0u as=0p ps=0u w=4 l=0.15
X231 VDD vn a_5499_107251# VDD sky130_fd_pr__pfet_01v8 ad=0p pd=0u as=1.135e+13p ps=7.454e+07u w=5 l=0.15
X232 a_65204_75375# a_41574_90047# VOP VDD sky130_fd_pr__pfet_01v8 ad=0p pd=0u as=2.9e+12p ps=2.058e+07u w=1e+01 l=0.15
X233 ibias_bgr a_n13854_75307# VDD VDD sky130_fd_pr__pfet_g5v0d10v5 ad=0p pd=0u as=0p ps=0u w=1 l=0.5
X234 a_82405_120224# GND sky130_fd_pr__cap_mim_m3_1 l=2.788e+01 w=2.787e+01
X235 VDD w_44584_80141# a_79145_83670# VDD sky130_fd_pr__pfet_01v8 ad=0p pd=0u as=2.61e+12p ps=1.974e+07u w=4 l=0.6
X236 GND a_82405_120224# sky130_fd_pr__cap_mim_m3_1 l=2.788e+01 w=2.787e+01
X237 a_n18697_76541# a_n13854_75307# VDD VDD sky130_fd_pr__pfet_g5v0d10v5 ad=0p pd=0u as=0p ps=0u w=1 l=0.5
X238 a_54423_117058# a_49518_116626# VDD VDD sky130_fd_pr__pfet_01v8 ad=2.32e+12p pd=1.716e+07u as=0p ps=0u w=4 l=0.15
X239 ibias_bgr a_n13854_75307# VDD VDD sky130_fd_pr__pfet_g5v0d10v5 ad=0p pd=0u as=0p ps=0u w=1 l=0.5
X240 ibias_bgr a_n13854_75307# VDD VDD sky130_fd_pr__pfet_g5v0d10v5 ad=0p pd=0u as=0p ps=0u w=1 l=0.5
X241 a_54773_116635# a_49576_120048# GND GND sky130_fd_pr__nfet_01v8 ad=3.48e+12p pd=2.516e+07u as=0p ps=0u w=6 l=0.15
X242 a_50325_86466# w_44584_82571# a_49825_77079# GND sky130_fd_pr__nfet_01v8 ad=0p pd=0u as=0p ps=0u w=2 l=0.6
X243 GND a_82405_120224# sky130_fd_pr__cap_mim_m3_1 l=2.788e+01 w=2.787e+01
X244 VDD a_n13854_75307# ibias_bgr VDD sky130_fd_pr__pfet_g5v0d10v5 ad=0p pd=0u as=0p ps=0u w=1 l=0.5
X245 VDD a_n13854_75307# a_n18539_76541# VDD sky130_fd_pr__pfet_g5v0d10v5 ad=0p pd=0u as=0p ps=0u w=1 l=0.5
X246 GND VOP sky130_fd_pr__cap_mim_m3_1 l=2.506e+01 w=2.506e+01
X247 a_45790_122582# a_45740_126421# VDD VDD sky130_fd_pr__pfet_01v8 ad=2.32e+12p pd=1.716e+07u as=0p ps=0u w=4 l=0.15
X248 a_58511_116635# a_56820_116627# GND GND sky130_fd_pr__nfet_01v8 ad=3.48e+12p pd=2.516e+07u as=0p ps=0u w=6 l=0.15
X249 GND a_61582_120050# a_61327_116628# GND sky130_fd_pr__nfet_01v8 ad=0p pd=0u as=1.16e+12p ps=9.16e+06u w=2 l=0.15
X250 VOP dn a_50325_86466# GND sky130_fd_pr__nfet_01v8 ad=1.16e+12p pd=8.58e+06u as=0p ps=0u w=4 l=0.15
X251 a_55584_126507# a_49170_125698# VDD VDD sky130_fd_pr__pfet_01v8 ad=1.16e+12p pd=8.58e+06u as=0p ps=0u w=4 l=0.15
X252 a_82405_120224# GND sky130_fd_pr__cap_mim_m3_1 l=2.788e+01 w=2.787e+01
X253 VDD a_n13854_75307# ibias_bgr VDD sky130_fd_pr__pfet_g5v0d10v5 ad=0p pd=0u as=0p ps=0u w=1 l=0.5
X254 up a_36275_132468# GND GND sky130_fd_pr__nfet_01v8 ad=7.25e+11p pd=5.58e+06u as=0p ps=0u w=2.5 l=0.15
X255 a_65026_75375# w_44584_80141# VDD VDD sky130_fd_pr__pfet_01v8 ad=0p pd=0u as=0p ps=0u w=6.66 l=0.6
X256 a_n18539_76541# a_n13854_75307# VDD VDD sky130_fd_pr__pfet_g5v0d10v5 ad=0p pd=0u as=0p ps=0u w=1 l=0.5
X257 a_82405_120224# GND sky130_fd_pr__cap_mim_m3_1 l=2.788e+01 w=2.787e+01
X258 ibias_bgr a_n13854_75307# VDD VDD sky130_fd_pr__pfet_g5v0d10v5 ad=0p pd=0u as=0p ps=0u w=1 l=0.5
X259 GND a_82405_120224# sky130_fd_pr__cap_mim_m3_1 l=2.788e+01 w=2.787e+01
X260 a_83917_120224# a_84295_121544# GND sky130_fd_pr__res_xhigh_po w=1.41 l=4.44
X261 GND a_82405_120224# sky130_fd_pr__cap_mim_m3_1 l=2.788e+01 w=2.787e+01
X262 a_43823_120053# a_52858_120016# VDD VDD sky130_fd_pr__pfet_01v8 ad=0p pd=0u as=0p ps=0u w=4 l=0.15
X263 ibias_cp ibias_cp VDD VDD sky130_fd_pr__pfet_01v8 ad=0p pd=0u as=0p ps=0u w=1e+01 l=0.15
X264 ibias_bgr a_n13854_75307# VDD VDD sky130_fd_pr__pfet_g5v0d10v5 ad=0p pd=0u as=0p ps=0u w=1 l=0.5
X265 VDD a_n13854_75307# a_n13854_75307# VDD sky130_fd_pr__pfet_g5v0d10v5 ad=0p pd=0u as=0p ps=0u w=1 l=0.5
X266 a_82405_120224# GND sky130_fd_pr__cap_mim_m3_1 l=2.788e+01 w=2.787e+01
X267 GND a_47163_125604# a_48815_125699# GND sky130_fd_pr__nfet_01v8 ad=0p pd=0u as=3.48e+12p ps=2.516e+07u w=6 l=0.15
X268 VDD a_n13854_75307# ibias_bgr VDD sky130_fd_pr__pfet_g5v0d10v5 ad=0p pd=0u as=0p ps=0u w=1 l=0.5
X269 a_50325_86466# w_44584_82571# a_49825_77079# GND sky130_fd_pr__nfet_01v8 ad=0p pd=0u as=0p ps=0u w=2 l=0.6
X270 GND a_82405_120224# sky130_fd_pr__cap_mim_m3_1 l=2.788e+01 w=2.787e+01
X271 a_82405_120224# GND sky130_fd_pr__cap_mim_m3_1 l=2.788e+01 w=2.787e+01
X272 GND a_49471_125610# a_49258_125698# GND sky130_fd_pr__nfet_01v8 ad=0p pd=0u as=0p ps=0u w=6 l=0.15
X273 vco_out vp VDD VDD sky130_fd_pr__pfet_01v8 ad=0p pd=0u as=0p ps=0u w=5 l=0.15
X274 VDD a_n13854_75307# a_n13854_75307# VDD sky130_fd_pr__pfet_g5v0d10v5 ad=0p pd=0u as=0p ps=0u w=1 l=0.5
X275 a_n18755_76638# a_n18608_82354# GND GND sky130_fd_pr__nfet_g5v0d10v5 ad=4.872e+11p pd=5.68e+06u as=0p ps=0u w=0.42 l=0.5
X276 GND a_82405_120224# sky130_fd_pr__cap_mim_m3_1 l=2.788e+01 w=2.787e+01
X277 a_38266_132468# FB a_37805_131001# VDD sky130_fd_pr__pfet_01v8 ad=2.61e+12p pd=1.916e+07u as=1.16e+12p ps=8.58e+06u w=4 l=0.2
X278 a_64579_120018# a_61239_116628# VDD VDD sky130_fd_pr__pfet_01v8 ad=3.48e+12p pd=2.574e+07u as=0p ps=0u w=4 l=0.15
X279 VDD a_n13854_75307# ibias_bgr VDD sky130_fd_pr__pfet_g5v0d10v5 ad=0p pd=0u as=0p ps=0u w=1 l=0.5
X280 a_47398_116639# a_43766_116631# GND GND sky130_fd_pr__nfet_01v8 ad=0p pd=0u as=0p ps=0u w=6 l=0.15
X281 a_61327_116628# a_61279_117050# a_61239_116628# GND sky130_fd_pr__nfet_01v8 ad=0p pd=0u as=5.8e+11p ps=4.58e+06u w=2 l=0.15
X282 GND a_82405_120224# sky130_fd_pr__cap_mim_m3_1 l=2.788e+01 w=2.787e+01
X283 a_45788_126509# a_45740_126421# GND GND sky130_fd_pr__nfet_01v8 ad=0p pd=0u as=0p ps=0u w=2 l=0.15
X284 VDD ibias_vco w_n17989_117096# VDD sky130_fd_pr__pfet_01v8 ad=0p pd=0u as=0p ps=0u w=2e+01 l=0.5
X285 VDD a_n13854_75307# ibias_bgr VDD sky130_fd_pr__pfet_g5v0d10v5 ad=0p pd=0u as=0p ps=0u w=1 l=0.5
X286 a_82405_120224# GND sky130_fd_pr__cap_mim_m3_1 l=2.788e+01 w=2.787e+01
X287 a_49576_120048# a_56820_116627# VDD VDD sky130_fd_pr__pfet_01v8 ad=2.32e+12p pd=1.716e+07u as=0p ps=0u w=4 l=0.15
X288 a_82405_120224# GND sky130_fd_pr__cap_mim_m3_1 l=2.788e+01 w=2.787e+01
X289 vp vn GND GND sky130_fd_pr__nfet_01v8 ad=1.94e+13p pd=1.2194e+08u as=0p ps=0u w=2e+01 l=0.15
X290 ibias_bgr a_n13854_75307# VDD VDD sky130_fd_pr__pfet_g5v0d10v5 ad=0p pd=0u as=0p ps=0u w=1 l=0.5
X291 VDD a_n13854_75307# ibias_bgr VDD sky130_fd_pr__pfet_g5v0d10v5 ad=0p pd=0u as=0p ps=0u w=1 l=0.5
X292 GND a_35740_132356# a_37805_131001# GND sky130_fd_pr__nfet_01v8 ad=0p pd=0u as=7.25e+11p ps=5.58e+06u w=2.5 l=0.15
X293 VDD a_n13854_75307# a_n13854_75307# VDD sky130_fd_pr__pfet_g5v0d10v5 ad=0p pd=0u as=0p ps=0u w=1 l=0.5