*SPEF "ieee 1481-1999"
*DESIGN "DSM"
*DATE "11:11:11 Fri 11 11, 1111"
*VENDOR "OpenRCX"
*PROGRAM "Parallel Extraction"
*VERSION "1.0"
*DESIGN_FLOW "NAME_SCOPE LOCAL" "PIN_CAP NONE"
*DIVIDER /
*DELIMITER :
*BUS_DELIMITER []
*T_UNIT 1 NS
*C_UNIT 1 PF
*R_UNIT 1 OHM
*L_UNIT 1 HENRY

*NAME_MAP
*1 Clk
*2 In_Data[0]
*3 In_Data[1]
*4 In_Data[2]
*5 In_Data[3]
*6 In_Data[4]
*7 In_Data[5]
*8 In_Data[6]
*9 Out_Data[0]
*10 Out_Data[1]
*11 Out_Data[2]
*12 Out_Data[3]
*13 Out_Data[4]
*16 reset
*17 DCout3
*18 _000_
*19 _001_
*20 _002_
*21 _003_
*22 _004_
*23 _005_
*24 _006_
*25 _007_
*26 _008_
*27 _009_
*28 _010_
*29 _011_
*30 _012_
*31 _013_
*32 _014_
*33 _015_
*34 _016_
*35 _017_
*36 _018_
*37 _019_
*38 _020_
*39 _021_
*40 _022_
*41 _023_
*42 _024_
*43 _025_
*44 _026_
*45 _027_
*46 _028_
*47 _029_
*48 _030_
*49 _031_
*50 _032_
*51 _033_
*52 _034_
*53 _035_
*54 _036_
*55 _037_
*56 _038_
*57 _039_
*58 _040_
*59 _041_
*60 _042_
*61 _043_
*62 _044_
*63 _045_
*64 _046_
*65 _047_
*66 _048_
*67 _049_
*68 _050_
*69 _051_
*70 _052_
*71 _053_
*72 _054_
*73 _055_
*74 _056_
*75 _057_
*76 _058_
*77 _059_
*78 _060_
*79 _061_
*80 _062_
*81 _063_
*82 _064_
*83 _065_
*84 _066_
*85 _067_
*86 _068_
*87 _069_
*88 _070_
*89 _071_
*90 _072_
*91 _073_
*92 _074_
*93 _075_
*94 _076_
*95 _077_
*96 _078_
*97 _079_
*98 _080_
*99 _081_
*100 _082_
*101 _083_
*102 _084_
*103 _085_
*104 _086_
*105 _087_
*106 _088_
*107 _089_
*108 _090_
*109 _091_
*110 _092_
*111 _093_
*112 _094_
*113 _095_
*114 _096_
*115 _097_
*116 _098_
*117 _099_
*118 _100_
*119 _101_
*120 _102_
*121 _103_
*122 _104_
*123 _105_
*124 _106_
*125 _107_
*126 _108_
*127 net1
*128 net10
*129 net11
*130 net12
*131 net13
*132 net14
*133 net15
*134 net16
*135 net17
*136 net18
*137 net19
*138 net2
*139 net20
*140 net21
*141 net22
*142 net3
*143 net4
*144 net5
*145 net6
*146 net7
*147 net8
*148 net9
*149 u1\.Out_Data\[0\]
*150 u1\.Out_Data\[1\]
*151 u1\.Out_Data\[2\]
*152 u1\.Out_Data\[3\]
*153 u1\.Out_Data\[4\]
*154 u1\.Out_Data\[5\]
*155 u1\.Out_Data\[6\]
*156 u1\.Sum\[0\]
*157 u1\.Sum\[1\]
*158 u1\.Sum\[2\]
*159 u1\.Sum\[3\]
*160 u1\.Sum\[4\]
*161 u1\.Sum\[5\]
*162 u1\.Sum\[6\]
*163 u2\.Out_Data\[0\]
*164 u2\.Out_Data\[1\]
*165 u2\.Out_Data\[2\]
*166 u2\.Out_Data\[3\]
*167 u2\.Out_Data\[4\]
*168 u2\.Out_Data\[5\]
*169 u2\.Out_Data\[6\]
*170 u2\.Sum\[0\]
*171 u2\.Sum\[1\]
*172 u2\.Sum\[2\]
*173 u2\.Sum\[3\]
*174 u2\.Sum\[4\]
*175 u2\.Sum\[5\]
*176 u2\.Sum\[6\]
*177 u3\.Cout
*178 u3\.Out_Data\[0\]
*179 u3\.Out_Data\[1\]
*180 u3\.Out_Data\[2\]
*181 u3\.Out_Data\[3\]
*182 u3\.Out_Data\[4\]
*183 u3\.Out_Data\[5\]
*184 u3\.Out_Data\[6\]
*185 u3\.Sum\[0\]
*186 u3\.Sum\[1\]
*187 u3\.Sum\[2\]
*188 u3\.Sum\[3\]
*189 u3\.Sum\[4\]
*190 u3\.Sum\[5\]
*191 u3\.Sum\[6\]
*192 u4\.Out_Data\[0\]
*193 u4\.Out_Data\[1\]
*194 u4\.Out_Data\[2\]
*195 u5\.Data3\[0\]
*196 u5\.Data3\[1\]
*197 u5\.Data3\[2\]
*198 FILLER_0_109
*199 FILLER_0_113
*200 FILLER_0_125
*201 FILLER_0_137
*202 FILLER_0_141
*203 FILLER_0_147
*204 FILLER_0_159
*205 FILLER_0_167
*206 FILLER_0_169
*207 FILLER_0_181
*208 FILLER_0_193
*209 FILLER_0_197
*210 FILLER_0_20
*211 FILLER_0_209
*212 FILLER_0_221
*213 FILLER_0_225
*214 FILLER_0_230
*215 FILLER_0_238
*216 FILLER_0_29
*217 FILLER_0_3
*218 FILLER_0_41
*219 FILLER_0_53
*220 FILLER_0_57
*221 FILLER_0_65
*222 FILLER_0_76
*223 FILLER_0_8
*224 FILLER_0_85
*225 FILLER_0_97
*226 FILLER_10_109
*227 FILLER_10_121
*228 FILLER_10_133
*229 FILLER_10_139
*230 FILLER_10_141
*231 FILLER_10_153
*232 FILLER_10_165
*233 FILLER_10_177
*234 FILLER_10_192
*235 FILLER_10_197
*236 FILLER_10_20
*237 FILLER_10_209
*238 FILLER_10_215
*239 FILLER_10_219
*240 FILLER_10_231
*241 FILLER_10_239
*242 FILLER_10_29
*243 FILLER_10_3
*244 FILLER_10_41
*245 FILLER_10_53
*246 FILLER_10_65
*247 FILLER_10_77
*248 FILLER_10_8
*249 FILLER_10_83
*250 FILLER_10_85
*251 FILLER_10_97
*252 FILLER_11_105
*253 FILLER_11_111
*254 FILLER_11_113
*255 FILLER_11_125
*256 FILLER_11_137
*257 FILLER_11_15
*258 FILLER_11_151
*259 FILLER_11_159
*260 FILLER_11_167
*261 FILLER_11_169
*262 FILLER_11_181
*263 FILLER_11_207
*264 FILLER_11_215
*265 FILLER_11_222
*266 FILLER_11_225
*267 FILLER_11_232
*268 FILLER_11_240
*269 FILLER_11_27
*270 FILLER_11_3
*271 FILLER_11_39
*272 FILLER_11_51
*273 FILLER_11_55
*274 FILLER_11_57
*275 FILLER_11_69
*276 FILLER_11_81
*277 FILLER_11_87
*278 FILLER_11_93
*279 FILLER_12_102
*280 FILLER_12_106
*281 FILLER_12_127
*282 FILLER_12_138
*283 FILLER_12_141
*284 FILLER_12_15
*285 FILLER_12_154
*286 FILLER_12_178
*287 FILLER_12_190
*288 FILLER_12_197
*289 FILLER_12_209
*290 FILLER_12_215
*291 FILLER_12_239
*292 FILLER_12_27
*293 FILLER_12_29
*294 FILLER_12_3
*295 FILLER_12_44
*296 FILLER_12_55
*297 FILLER_12_61
*298 FILLER_12_82
*299 FILLER_12_85
*300 FILLER_12_91
*301 FILLER_13_103
*302 FILLER_13_111
*303 FILLER_13_113
*304 FILLER_13_125
*305 FILLER_13_133
*306 FILLER_13_137
*307 FILLER_13_144
*308 FILLER_13_15
*309 FILLER_13_156
*310 FILLER_13_169
*311 FILLER_13_181
*312 FILLER_13_193
*313 FILLER_13_205
*314 FILLER_13_217
*315 FILLER_13_223
*316 FILLER_13_225
*317 FILLER_13_239
*318 FILLER_13_27
*319 FILLER_13_3
*320 FILLER_13_35
*321 FILLER_13_39
*322 FILLER_13_49
*323 FILLER_13_55
*324 FILLER_13_57
*325 FILLER_13_69
*326 FILLER_13_81
*327 FILLER_13_87
*328 FILLER_13_91
*329 FILLER_14_109
*330 FILLER_14_121
*331 FILLER_14_133
*332 FILLER_14_139
*333 FILLER_14_141
*334 FILLER_14_15
*335 FILLER_14_153
*336 FILLER_14_165
*337 FILLER_14_177
*338 FILLER_14_189
*339 FILLER_14_195
*340 FILLER_14_197
*341 FILLER_14_209
*342 FILLER_14_221
*343 FILLER_14_233
*344 FILLER_14_27
*345 FILLER_14_29
*346 FILLER_14_3
*347 FILLER_14_41
*348 FILLER_14_47
*349 FILLER_14_59
*350 FILLER_14_71
*351 FILLER_14_83
*352 FILLER_14_85
*353 FILLER_14_97
*354 FILLER_15_105
*355 FILLER_15_111
*356 FILLER_15_113
*357 FILLER_15_125
*358 FILLER_15_137
*359 FILLER_15_149
*360 FILLER_15_15
*361 FILLER_15_161
*362 FILLER_15_167
*363 FILLER_15_169
*364 FILLER_15_181
*365 FILLER_15_193
*366 FILLER_15_205
*367 FILLER_15_217
*368 FILLER_15_223
*369 FILLER_15_225
*370 FILLER_15_237
*371 FILLER_15_27
*372 FILLER_15_3
*373 FILLER_15_39
*374 FILLER_15_51
*375 FILLER_15_55
*376 FILLER_15_57
*377 FILLER_15_69
*378 FILLER_15_81
*379 FILLER_15_93
*380 FILLER_16_110
*381 FILLER_16_122
*382 FILLER_16_130
*383 FILLER_16_134
*384 FILLER_16_138
*385 FILLER_16_141
*386 FILLER_16_15
*387 FILLER_16_150
*388 FILLER_16_178
*389 FILLER_16_184
*390 FILLER_16_194
*391 FILLER_16_197
*392 FILLER_16_209
*393 FILLER_16_221
*394 FILLER_16_228
*395 FILLER_16_240
*396 FILLER_16_27
*397 FILLER_16_29
*398 FILLER_16_3
*399 FILLER_16_47
*400 FILLER_16_59
*401 FILLER_16_71
*402 FILLER_16_82
*403 FILLER_16_85
*404 FILLER_16_90
*405 FILLER_16_94
*406 FILLER_16_98
*407 FILLER_17_110
*408 FILLER_17_113
*409 FILLER_17_135
*410 FILLER_17_144
*411 FILLER_17_15
*412 FILLER_17_150
*413 FILLER_17_158
*414 FILLER_17_166
*415 FILLER_17_169
*416 FILLER_17_181
*417 FILLER_17_185
*418 FILLER_17_189
*419 FILLER_17_198
*420 FILLER_17_205
*421 FILLER_17_217
*422 FILLER_17_222
*423 FILLER_17_225
*424 FILLER_17_232
*425 FILLER_17_239
*426 FILLER_17_27
*427 FILLER_17_3
*428 FILLER_17_32
*429 FILLER_17_39
*430 FILLER_17_50
*431 FILLER_17_57
*432 FILLER_17_79
*433 FILLER_17_88
*434 FILLER_17_99
*435 FILLER_18_100
*436 FILLER_18_112
*437 FILLER_18_124
*438 FILLER_18_136
*439 FILLER_18_141
*440 FILLER_18_146
*441 FILLER_18_15
*442 FILLER_18_158
*443 FILLER_18_170
*444 FILLER_18_182
*445 FILLER_18_186
*446 FILLER_18_194
*447 FILLER_18_197
*448 FILLER_18_209
*449 FILLER_18_213
*450 FILLER_18_237
*451 FILLER_18_27
*452 FILLER_18_29
*453 FILLER_18_3
*454 FILLER_18_41
*455 FILLER_18_48
*456 FILLER_18_60
*457 FILLER_18_72
*458 FILLER_18_85
*459 FILLER_18_91
*460 FILLER_19_105
*461 FILLER_19_111
*462 FILLER_19_113
*463 FILLER_19_125
*464 FILLER_19_137
*465 FILLER_19_15
*466 FILLER_19_150
*467 FILLER_19_162
*468 FILLER_19_169
*469 FILLER_19_181
*470 FILLER_19_193
*471 FILLER_19_205
*472 FILLER_19_217
*473 FILLER_19_223
*474 FILLER_19_225
*475 FILLER_19_229
*476 FILLER_19_234
*477 FILLER_19_240
*478 FILLER_19_27
*479 FILLER_19_3
*480 FILLER_19_39
*481 FILLER_19_51
*482 FILLER_19_55
*483 FILLER_19_57
*484 FILLER_19_69
*485 FILLER_19_81
*486 FILLER_19_93
*487 FILLER_1_105
*488 FILLER_1_111
*489 FILLER_1_113
*490 FILLER_1_125
*491 FILLER_1_137
*492 FILLER_1_149
*493 FILLER_1_15
*494 FILLER_1_161
*495 FILLER_1_167
*496 FILLER_1_169
*497 FILLER_1_181
*498 FILLER_1_193
*499 FILLER_1_205
*500 FILLER_1_209
*501 FILLER_1_215
*502 FILLER_1_223
*503 FILLER_1_225
*504 FILLER_1_237
*505 FILLER_1_27
*506 FILLER_1_3
*507 FILLER_1_39
*508 FILLER_1_51
*509 FILLER_1_55
*510 FILLER_1_57
*511 FILLER_1_69
*512 FILLER_1_81
*513 FILLER_1_93
*514 FILLER_20_109
*515 FILLER_20_121
*516 FILLER_20_133
*517 FILLER_20_139
*518 FILLER_20_141
*519 FILLER_20_15
*520 FILLER_20_151
*521 FILLER_20_163
*522 FILLER_20_175
*523 FILLER_20_187
*524 FILLER_20_195
*525 FILLER_20_197
*526 FILLER_20_209
*527 FILLER_20_221
*528 FILLER_20_233
*529 FILLER_20_27
*530 FILLER_20_29
*531 FILLER_20_3
*532 FILLER_20_41
*533 FILLER_20_53
*534 FILLER_20_65
*535 FILLER_20_77
*536 FILLER_20_83
*537 FILLER_20_85
*538 FILLER_20_97
*539 FILLER_21_106
*540 FILLER_21_113
*541 FILLER_21_125
*542 FILLER_21_137
*543 FILLER_21_149
*544 FILLER_21_15
*545 FILLER_21_161
*546 FILLER_21_167
*547 FILLER_21_169
*548 FILLER_21_181
*549 FILLER_21_185
*550 FILLER_21_206
*551 FILLER_21_218
*552 FILLER_21_225
*553 FILLER_21_237
*554 FILLER_21_27
*555 FILLER_21_3
*556 FILLER_21_39
*557 FILLER_21_51
*558 FILLER_21_55
*559 FILLER_21_57
*560 FILLER_21_69
*561 FILLER_21_81
*562 FILLER_21_93
*563 FILLER_21_99
*564 FILLER_22_107
*565 FILLER_22_133
*566 FILLER_22_139
*567 FILLER_22_141
*568 FILLER_22_146
*569 FILLER_22_15
*570 FILLER_22_158
*571 FILLER_22_180
*572 FILLER_22_192
*573 FILLER_22_197
*574 FILLER_22_209
*575 FILLER_22_221
*576 FILLER_22_233
*577 FILLER_22_27
*578 FILLER_22_29
*579 FILLER_22_3
*580 FILLER_22_41
*581 FILLER_22_50
*582 FILLER_22_74
*583 FILLER_22_81
*584 FILLER_22_85
*585 FILLER_22_96
*586 FILLER_23_102
*587 FILLER_23_110
*588 FILLER_23_113
*589 FILLER_23_125
*590 FILLER_23_130
*591 FILLER_23_134
*592 FILLER_23_138
*593 FILLER_23_148
*594 FILLER_23_15
*595 FILLER_23_159
*596 FILLER_23_167
*597 FILLER_23_169
*598 FILLER_23_181
*599 FILLER_23_193
*600 FILLER_23_205
*601 FILLER_23_217
*602 FILLER_23_223
*603 FILLER_23_225
*604 FILLER_23_237
*605 FILLER_23_27
*606 FILLER_23_3
*607 FILLER_23_39
*608 FILLER_23_51
*609 FILLER_23_55
*610 FILLER_23_57
*611 FILLER_23_69
*612 FILLER_23_78
*613 FILLER_23_87
*614 FILLER_24_109
*615 FILLER_24_121
*616 FILLER_24_133
*617 FILLER_24_139
*618 FILLER_24_141
*619 FILLER_24_153
*620 FILLER_24_165
*621 FILLER_24_177
*622 FILLER_24_189
*623 FILLER_24_195
*624 FILLER_24_197
*625 FILLER_24_20
*626 FILLER_24_209
*627 FILLER_24_221
*628 FILLER_24_233
*629 FILLER_24_29
*630 FILLER_24_3
*631 FILLER_24_41
*632 FILLER_24_53
*633 FILLER_24_65
*634 FILLER_24_73
*635 FILLER_24_79
*636 FILLER_24_8
*637 FILLER_24_83
*638 FILLER_24_85
*639 FILLER_24_97
*640 FILLER_25_105
*641 FILLER_25_111
*642 FILLER_25_113
*643 FILLER_25_125
*644 FILLER_25_137
*645 FILLER_25_149
*646 FILLER_25_15
*647 FILLER_25_161
*648 FILLER_25_167
*649 FILLER_25_169
*650 FILLER_25_181
*651 FILLER_25_193
*652 FILLER_25_205
*653 FILLER_25_217
*654 FILLER_25_223
*655 FILLER_25_225
*656 FILLER_25_237
*657 FILLER_25_27
*658 FILLER_25_3
*659 FILLER_25_39
*660 FILLER_25_51
*661 FILLER_25_55
*662 FILLER_25_57
*663 FILLER_25_69
*664 FILLER_25_81
*665 FILLER_25_93
*666 FILLER_26_105
*667 FILLER_26_114
*668 FILLER_26_126
*669 FILLER_26_138
*670 FILLER_26_141
*671 FILLER_26_15
*672 FILLER_26_153
*673 FILLER_26_165
*674 FILLER_26_177
*675 FILLER_26_189
*676 FILLER_26_195
*677 FILLER_26_197
*678 FILLER_26_209
*679 FILLER_26_221
*680 FILLER_26_233
*681 FILLER_26_27
*682 FILLER_26_29
*683 FILLER_26_3
*684 FILLER_26_44
*685 FILLER_26_56
*686 FILLER_26_68
*687 FILLER_26_79
*688 FILLER_26_83
*689 FILLER_26_85
*690 FILLER_26_90
*691 FILLER_26_98
*692 FILLER_27_11
*693 FILLER_27_110
*694 FILLER_27_113
*695 FILLER_27_118
*696 FILLER_27_126
*697 FILLER_27_131
*698 FILLER_27_143
*699 FILLER_27_150
*700 FILLER_27_162
*701 FILLER_27_169
*702 FILLER_27_181
*703 FILLER_27_193
*704 FILLER_27_205
*705 FILLER_27_217
*706 FILLER_27_223
*707 FILLER_27_225
*708 FILLER_27_237
*709 FILLER_27_3
*710 FILLER_27_35
*711 FILLER_27_39
*712 FILLER_27_53
*713 FILLER_27_57
*714 FILLER_27_81
*715 FILLER_27_90
*716 FILLER_27_94
*717 FILLER_27_98
*718 FILLER_28_105
*719 FILLER_28_109
*720 FILLER_28_118
*721 FILLER_28_130
*722 FILLER_28_134
*723 FILLER_28_138
*724 FILLER_28_141
*725 FILLER_28_15
*726 FILLER_28_156
*727 FILLER_28_180
*728 FILLER_28_192
*729 FILLER_28_197
*730 FILLER_28_209
*731 FILLER_28_221
*732 FILLER_28_233
*733 FILLER_28_27
*734 FILLER_28_29
*735 FILLER_28_3
*736 FILLER_28_55
*737 FILLER_28_67
*738 FILLER_28_82
*739 FILLER_28_85
*740 FILLER_28_97
*741 FILLER_29_105
*742 FILLER_29_111
*743 FILLER_29_113
*744 FILLER_29_120
*745 FILLER_29_132
*746 FILLER_29_145
*747 FILLER_29_15
*748 FILLER_29_152
*749 FILLER_29_164
*750 FILLER_29_169
*751 FILLER_29_181
*752 FILLER_29_193
*753 FILLER_29_205
*754 FILLER_29_217
*755 FILLER_29_223
*756 FILLER_29_225
*757 FILLER_29_237
*758 FILLER_29_27
*759 FILLER_29_3
*760 FILLER_29_39
*761 FILLER_29_45
*762 FILLER_29_52
*763 FILLER_29_57
*764 FILLER_29_69
*765 FILLER_29_81
*766 FILLER_29_93
*767 FILLER_2_109
*768 FILLER_2_121
*769 FILLER_2_133
*770 FILLER_2_139
*771 FILLER_2_141
*772 FILLER_2_15
*773 FILLER_2_153
*774 FILLER_2_165
*775 FILLER_2_177
*776 FILLER_2_189
*777 FILLER_2_195
*778 FILLER_2_197
*779 FILLER_2_216
*780 FILLER_2_228
*781 FILLER_2_240
*782 FILLER_2_27
*783 FILLER_2_29
*784 FILLER_2_3
*785 FILLER_2_41
*786 FILLER_2_53
*787 FILLER_2_65
*788 FILLER_2_77
*789 FILLER_2_83
*790 FILLER_2_85
*791 FILLER_2_97
*792 FILLER_30_109
*793 FILLER_30_120
*794 FILLER_30_132
*795 FILLER_30_141
*796 FILLER_30_15
*797 FILLER_30_153
*798 FILLER_30_165
*799 FILLER_30_177
*800 FILLER_30_189
*801 FILLER_30_195
*802 FILLER_30_197
*803 FILLER_30_209
*804 FILLER_30_221
*805 FILLER_30_233
*806 FILLER_30_27
*807 FILLER_30_29
*808 FILLER_30_3
*809 FILLER_30_41
*810 FILLER_30_53
*811 FILLER_30_65
*812 FILLER_30_77
*813 FILLER_30_83
*814 FILLER_30_85
*815 FILLER_30_97
*816 FILLER_31_108
*817 FILLER_31_113
*818 FILLER_31_145
*819 FILLER_31_157
*820 FILLER_31_165
*821 FILLER_31_169
*822 FILLER_31_181
*823 FILLER_31_193
*824 FILLER_31_205
*825 FILLER_31_217
*826 FILLER_31_223
*827 FILLER_31_225
*828 FILLER_31_233
*829 FILLER_31_239
*830 FILLER_31_25
*831 FILLER_31_3
*832 FILLER_31_37
*833 FILLER_31_41
*834 FILLER_31_45
*835 FILLER_31_53
*836 FILLER_31_57
*837 FILLER_31_73
*838 FILLER_31_85
*839 FILLER_32_109
*840 FILLER_32_121
*841 FILLER_32_133
*842 FILLER_32_139
*843 FILLER_32_141
*844 FILLER_32_15
*845 FILLER_32_153
*846 FILLER_32_165
*847 FILLER_32_177
*848 FILLER_32_189
*849 FILLER_32_195
*850 FILLER_32_197
*851 FILLER_32_209
*852 FILLER_32_221
*853 FILLER_32_233
*854 FILLER_32_27
*855 FILLER_32_29
*856 FILLER_32_3
*857 FILLER_32_35
*858 FILLER_32_56
*859 FILLER_32_60
*860 FILLER_32_82
*861 FILLER_32_85
*862 FILLER_32_97
*863 FILLER_33_105
*864 FILLER_33_111
*865 FILLER_33_113
*866 FILLER_33_125
*867 FILLER_33_137
*868 FILLER_33_149
*869 FILLER_33_15
*870 FILLER_33_161
*871 FILLER_33_167
*872 FILLER_33_169
*873 FILLER_33_181
*874 FILLER_33_193
*875 FILLER_33_20
*876 FILLER_33_205
*877 FILLER_33_217
*878 FILLER_33_223
*879 FILLER_33_225
*880 FILLER_33_237
*881 FILLER_33_3
*882 FILLER_33_32
*883 FILLER_33_44
*884 FILLER_33_57
*885 FILLER_33_69
*886 FILLER_33_81
*887 FILLER_33_93
*888 FILLER_34_109
*889 FILLER_34_121
*890 FILLER_34_133
*891 FILLER_34_139
*892 FILLER_34_141
*893 FILLER_34_15
*894 FILLER_34_153
*895 FILLER_34_165
*896 FILLER_34_177
*897 FILLER_34_189
*898 FILLER_34_195
*899 FILLER_34_197
*900 FILLER_34_209
*901 FILLER_34_221
*902 FILLER_34_233
*903 FILLER_34_25
*904 FILLER_34_29
*905 FILLER_34_3
*906 FILLER_34_41
*907 FILLER_34_45
*908 FILLER_34_59
*909 FILLER_34_68
*910 FILLER_34_80
*911 FILLER_34_85
*912 FILLER_34_97
*913 FILLER_35_105
*914 FILLER_35_111
*915 FILLER_35_113
*916 FILLER_35_125
*917 FILLER_35_137
*918 FILLER_35_149
*919 FILLER_35_15
*920 FILLER_35_161
*921 FILLER_35_167
*922 FILLER_35_169
*923 FILLER_35_181
*924 FILLER_35_193
*925 FILLER_35_205
*926 FILLER_35_217
*927 FILLER_35_223
*928 FILLER_35_225
*929 FILLER_35_237
*930 FILLER_35_27
*931 FILLER_35_3
*932 FILLER_35_39
*933 FILLER_35_51
*934 FILLER_35_55
*935 FILLER_35_57
*936 FILLER_35_69
*937 FILLER_35_86
*938 FILLER_35_93
*939 FILLER_36_103
*940 FILLER_36_115
*941 FILLER_36_127
*942 FILLER_36_139
*943 FILLER_36_141
*944 FILLER_36_15
*945 FILLER_36_153
*946 FILLER_36_165
*947 FILLER_36_177
*948 FILLER_36_189
*949 FILLER_36_195
*950 FILLER_36_197
*951 FILLER_36_209
*952 FILLER_36_221
*953 FILLER_36_233
*954 FILLER_36_27
*955 FILLER_36_29
*956 FILLER_36_3
*957 FILLER_36_34
*958 FILLER_36_46
*959 FILLER_36_58
*960 FILLER_36_70
*961 FILLER_36_82
*962 FILLER_36_85
*963 FILLER_36_91
*964 FILLER_37_109
*965 FILLER_37_113
*966 FILLER_37_125
*967 FILLER_37_137
*968 FILLER_37_149
*969 FILLER_37_15
*970 FILLER_37_161
*971 FILLER_37_167
*972 FILLER_37_169
*973 FILLER_37_181
*974 FILLER_37_193
*975 FILLER_37_205
*976 FILLER_37_217
*977 FILLER_37_223
*978 FILLER_37_225
*979 FILLER_37_237
*980 FILLER_37_24
*981 FILLER_37_3
*982 FILLER_37_35
*983 FILLER_37_42
*984 FILLER_37_54
*985 FILLER_37_57
*986 FILLER_37_67
*987 FILLER_37_88
*988 FILLER_37_9
*989 FILLER_37_97
*990 FILLER_38_101
*991 FILLER_38_113
*992 FILLER_38_125
*993 FILLER_38_137
*994 FILLER_38_141
*995 FILLER_38_15
*996 FILLER_38_153
*997 FILLER_38_165
*998 FILLER_38_177
*999 FILLER_38_189
*1000 FILLER_38_195
*1001 FILLER_38_197
*1002 FILLER_38_209
*1003 FILLER_38_221
*1004 FILLER_38_233
*1005 FILLER_38_26
*1006 FILLER_38_29
*1007 FILLER_38_3
*1008 FILLER_38_35
*1009 FILLER_38_52
*1010 FILLER_38_68
*1011 FILLER_38_77
*1012 FILLER_38_83
*1013 FILLER_38_85
*1014 FILLER_38_93
*1015 FILLER_39_101
*1016 FILLER_39_109
*1017 FILLER_39_113
*1018 FILLER_39_125
*1019 FILLER_39_137
*1020 FILLER_39_149
*1021 FILLER_39_15
*1022 FILLER_39_161
*1023 FILLER_39_167
*1024 FILLER_39_169
*1025 FILLER_39_181
*1026 FILLER_39_193
*1027 FILLER_39_205
*1028 FILLER_39_217
*1029 FILLER_39_223
*1030 FILLER_39_225
*1031 FILLER_39_237
*1032 FILLER_39_27
*1033 FILLER_39_3
*1034 FILLER_39_39
*1035 FILLER_39_51
*1036 FILLER_39_55
*1037 FILLER_39_57
*1038 FILLER_39_69
*1039 FILLER_39_81
*1040 FILLER_39_93
*1041 FILLER_3_105
*1042 FILLER_3_111
*1043 FILLER_3_113
*1044 FILLER_3_125
*1045 FILLER_3_137
*1046 FILLER_3_149
*1047 FILLER_3_15
*1048 FILLER_3_161
*1049 FILLER_3_167
*1050 FILLER_3_169
*1051 FILLER_3_181
*1052 FILLER_3_193
*1053 FILLER_3_205
*1054 FILLER_3_213
*1055 FILLER_3_221
*1056 FILLER_3_225
*1057 FILLER_3_237
*1058 FILLER_3_27
*1059 FILLER_3_3
*1060 FILLER_3_39
*1061 FILLER_3_51
*1062 FILLER_3_55
*1063 FILLER_3_57
*1064 FILLER_3_69
*1065 FILLER_3_81
*1066 FILLER_3_93
*1067 FILLER_40_100
*1068 FILLER_40_105
*1069 FILLER_40_111
*1070 FILLER_40_113
*1071 FILLER_40_125
*1072 FILLER_40_137
*1073 FILLER_40_141
*1074 FILLER_40_15
*1075 FILLER_40_153
*1076 FILLER_40_165
*1077 FILLER_40_169
*1078 FILLER_40_177
*1079 FILLER_40_188
*1080 FILLER_40_197
*1081 FILLER_40_209
*1082 FILLER_40_221
*1083 FILLER_40_225
*1084 FILLER_40_233
*1085 FILLER_40_239
*1086 FILLER_40_27
*1087 FILLER_40_29
*1088 FILLER_40_3
*1089 FILLER_40_35
*1090 FILLER_40_47
*1091 FILLER_40_55
*1092 FILLER_40_57
*1093 FILLER_40_69
*1094 FILLER_40_81
*1095 FILLER_40_85
*1096 FILLER_40_96
*1097 FILLER_4_109
*1098 FILLER_4_121
*1099 FILLER_4_133
*1100 FILLER_4_139
*1101 FILLER_4_141
*1102 FILLER_4_15
*1103 FILLER_4_153
*1104 FILLER_4_165
*1105 FILLER_4_173
*1106 FILLER_4_194
*1107 FILLER_4_197
*1108 FILLER_4_209
*1109 FILLER_4_221
*1110 FILLER_4_239
*1111 FILLER_4_27
*1112 FILLER_4_29
*1113 FILLER_4_3
*1114 FILLER_4_41
*1115 FILLER_4_53
*1116 FILLER_4_65
*1117 FILLER_4_77
*1118 FILLER_4_83
*1119 FILLER_4_85
*1120 FILLER_4_97
*1121 FILLER_5_105
*1122 FILLER_5_111
*1123 FILLER_5_113
*1124 FILLER_5_125
*1125 FILLER_5_137
*1126 FILLER_5_149
*1127 FILLER_5_15
*1128 FILLER_5_161
*1129 FILLER_5_167
*1130 FILLER_5_169
*1131 FILLER_5_181
*1132 FILLER_5_193
*1133 FILLER_5_222
*1134 FILLER_5_225
*1135 FILLER_5_237
*1136 FILLER_5_27
*1137 FILLER_5_3
*1138 FILLER_5_39
*1139 FILLER_5_51
*1140 FILLER_5_55
*1141 FILLER_5_57
*1142 FILLER_5_69
*1143 FILLER_5_81
*1144 FILLER_5_93
*1145 FILLER_6_111
*1146 FILLER_6_115
*1147 FILLER_6_120
*1148 FILLER_6_132
*1149 FILLER_6_141
*1150 FILLER_6_146
*1151 FILLER_6_15
*1152 FILLER_6_154
*1153 FILLER_6_177
*1154 FILLER_6_189
*1155 FILLER_6_195
*1156 FILLER_6_197
*1157 FILLER_6_209
*1158 FILLER_6_217
*1159 FILLER_6_239
*1160 FILLER_6_27
*1161 FILLER_6_29
*1162 FILLER_6_3
*1163 FILLER_6_41
*1164 FILLER_6_53
*1165 FILLER_6_64
*1166 FILLER_6_76
*1167 FILLER_6_85
*1168 FILLER_6_93
*1169 FILLER_6_99
*1170 FILLER_7_110
*1171 FILLER_7_113
*1172 FILLER_7_136
*1173 FILLER_7_145
*1174 FILLER_7_15
*1175 FILLER_7_157
*1176 FILLER_7_165
*1177 FILLER_7_169
*1178 FILLER_7_181
*1179 FILLER_7_189
*1180 FILLER_7_195
*1181 FILLER_7_210
*1182 FILLER_7_219
*1183 FILLER_7_223
*1184 FILLER_7_225
*1185 FILLER_7_230
*1186 FILLER_7_238
*1187 FILLER_7_27
*1188 FILLER_7_3
*1189 FILLER_7_39
*1190 FILLER_7_47
*1191 FILLER_7_54
*1192 FILLER_7_57
*1193 FILLER_7_65
*1194 FILLER_7_86
*1195 FILLER_7_97
*1196 FILLER_8_101
*1197 FILLER_8_113
*1198 FILLER_8_117
*1199 FILLER_8_122
*1200 FILLER_8_134
*1201 FILLER_8_141
*1202 FILLER_8_146
*1203 FILLER_8_15
*1204 FILLER_8_157
*1205 FILLER_8_169
*1206 FILLER_8_181
*1207 FILLER_8_187
*1208 FILLER_8_191
*1209 FILLER_8_195
*1210 FILLER_8_197
*1211 FILLER_8_204
*1212 FILLER_8_212
*1213 FILLER_8_219
*1214 FILLER_8_231
*1215 FILLER_8_239
*1216 FILLER_8_27
*1217 FILLER_8_29
*1218 FILLER_8_3
*1219 FILLER_8_41
*1220 FILLER_8_46
*1221 FILLER_8_54
*1222 FILLER_8_70
*1223 FILLER_8_82
*1224 FILLER_8_85
*1225 FILLER_8_89
*1226 FILLER_8_93
*1227 FILLER_9_104
*1228 FILLER_9_113
*1229 FILLER_9_125
*1230 FILLER_9_137
*1231 FILLER_9_149
*1232 FILLER_9_15
*1233 FILLER_9_161
*1234 FILLER_9_167
*1235 FILLER_9_169
*1236 FILLER_9_181
*1237 FILLER_9_194
*1238 FILLER_9_206
*1239 FILLER_9_218
*1240 FILLER_9_225
*1241 FILLER_9_237
*1242 FILLER_9_27
*1243 FILLER_9_3
*1244 FILLER_9_39
*1245 FILLER_9_50
*1246 FILLER_9_57
*1247 FILLER_9_69
*1248 FILLER_9_81
*1249 FILLER_9_93
*1250 PHY_0
*1251 PHY_1
*1252 PHY_10
*1253 PHY_11
*1254 PHY_12
*1255 PHY_13
*1256 PHY_14
*1257 PHY_15
*1258 PHY_16
*1259 PHY_17
*1260 PHY_18
*1261 PHY_19
*1262 PHY_2
*1263 PHY_20
*1264 PHY_21
*1265 PHY_22
*1266 PHY_23
*1267 PHY_24
*1268 PHY_25
*1269 PHY_26
*1270 PHY_27
*1271 PHY_28
*1272 PHY_29
*1273 PHY_3
*1274 PHY_30
*1275 PHY_31
*1276 PHY_32
*1277 PHY_33
*1278 PHY_34
*1279 PHY_35
*1280 PHY_36
*1281 PHY_37
*1282 PHY_38
*1283 PHY_39
*1284 PHY_4
*1285 PHY_40
*1286 PHY_41
*1287 PHY_42
*1288 PHY_43
*1289 PHY_44
*1290 PHY_45
*1291 PHY_46
*1292 PHY_47
*1293 PHY_48
*1294 PHY_49
*1295 PHY_5
*1296 PHY_50
*1297 PHY_51
*1298 PHY_52
*1299 PHY_53
*1300 PHY_54
*1301 PHY_55
*1302 PHY_56
*1303 PHY_57
*1304 PHY_58
*1305 PHY_59
*1306 PHY_6
*1307 PHY_60
*1308 PHY_61
*1309 PHY_62
*1310 PHY_63
*1311 PHY_64
*1312 PHY_65
*1313 PHY_66
*1314 PHY_67
*1315 PHY_68
*1316 PHY_69
*1317 PHY_7
*1318 PHY_70
*1319 PHY_71
*1320 PHY_72
*1321 PHY_73
*1322 PHY_74
*1323 PHY_75
*1324 PHY_76
*1325 PHY_77
*1326 PHY_78
*1327 PHY_79
*1328 PHY_8
*1329 PHY_80
*1330 PHY_81
*1331 PHY_9
*1332 TAP_100
*1333 TAP_101
*1334 TAP_102
*1335 TAP_103
*1336 TAP_104
*1337 TAP_105
*1338 TAP_106
*1339 TAP_107
*1340 TAP_108
*1341 TAP_109
*1342 TAP_110
*1343 TAP_111
*1344 TAP_112
*1345 TAP_113
*1346 TAP_114
*1347 TAP_115
*1348 TAP_116
*1349 TAP_117
*1350 TAP_118
*1351 TAP_119
*1352 TAP_120
*1353 TAP_121
*1354 TAP_122
*1355 TAP_123
*1356 TAP_124
*1357 TAP_125
*1358 TAP_126
*1359 TAP_127
*1360 TAP_128
*1361 TAP_129
*1362 TAP_130
*1363 TAP_131
*1364 TAP_132
*1365 TAP_133
*1366 TAP_134
*1367 TAP_135
*1368 TAP_136
*1369 TAP_137
*1370 TAP_138
*1371 TAP_139
*1372 TAP_140
*1373 TAP_141
*1374 TAP_142
*1375 TAP_143
*1376 TAP_144
*1377 TAP_145
*1378 TAP_146
*1379 TAP_147
*1380 TAP_148
*1381 TAP_149
*1382 TAP_150
*1383 TAP_151
*1384 TAP_152
*1385 TAP_153
*1386 TAP_154
*1387 TAP_155
*1388 TAP_156
*1389 TAP_157
*1390 TAP_158
*1391 TAP_159
*1392 TAP_160
*1393 TAP_161
*1394 TAP_162
*1395 TAP_163
*1396 TAP_164
*1397 TAP_165
*1398 TAP_166
*1399 TAP_167
*1400 TAP_168
*1401 TAP_169
*1402 TAP_170
*1403 TAP_171
*1404 TAP_172
*1405 TAP_173
*1406 TAP_174
*1407 TAP_175
*1408 TAP_176
*1409 TAP_177
*1410 TAP_178
*1411 TAP_179
*1412 TAP_180
*1413 TAP_181
*1414 TAP_182
*1415 TAP_183
*1416 TAP_184
*1417 TAP_185
*1418 TAP_186
*1419 TAP_187
*1420 TAP_188
*1421 TAP_189
*1422 TAP_190
*1423 TAP_191
*1424 TAP_192
*1425 TAP_193
*1426 TAP_194
*1427 TAP_195
*1428 TAP_196
*1429 TAP_197
*1430 TAP_198
*1431 TAP_199
*1432 TAP_200
*1433 TAP_201
*1434 TAP_202
*1435 TAP_203
*1436 TAP_204
*1437 TAP_205
*1438 TAP_206
*1439 TAP_207
*1440 TAP_208
*1441 TAP_209
*1442 TAP_210
*1443 TAP_211
*1444 TAP_212
*1445 TAP_213
*1446 TAP_214
*1447 TAP_215
*1448 TAP_216
*1449 TAP_217
*1450 TAP_218
*1451 TAP_219
*1452 TAP_220
*1453 TAP_221
*1454 TAP_222
*1455 TAP_223
*1456 TAP_224
*1457 TAP_225
*1458 TAP_226
*1459 TAP_227
*1460 TAP_228
*1461 TAP_229
*1462 TAP_230
*1463 TAP_231
*1464 TAP_232
*1465 TAP_233
*1466 TAP_234
*1467 TAP_235
*1468 TAP_236
*1469 TAP_237
*1470 TAP_238
*1471 TAP_239
*1472 TAP_240
*1473 TAP_241
*1474 TAP_242
*1475 TAP_243
*1476 TAP_244
*1477 TAP_245
*1478 TAP_246
*1479 TAP_247
*1480 TAP_248
*1481 TAP_249
*1482 TAP_250
*1483 TAP_251
*1484 TAP_252
*1485 TAP_253
*1486 TAP_82
*1487 TAP_83
*1488 TAP_84
*1489 TAP_85
*1490 TAP_86
*1491 TAP_87
*1492 TAP_88
*1493 TAP_89
*1494 TAP_90
*1495 TAP_91
*1496 TAP_92
*1497 TAP_93
*1498 TAP_94
*1499 TAP_95
*1500 TAP_96
*1501 TAP_97
*1502 TAP_98
*1503 TAP_99
*1504 _109_
*1505 _110_
*1506 _111_
*1507 _112_
*1508 _113_
*1509 _114_
*1510 _115_
*1511 _116_
*1512 _117_
*1513 _118_
*1514 _119_
*1515 _120_
*1516 _121_
*1517 _122_
*1518 _123_
*1519 _124_
*1520 _125_
*1521 _126_
*1522 _127_
*1523 _128_
*1524 _129_
*1525 _130_
*1526 _131_
*1527 _132_
*1528 _133_
*1529 _134_
*1530 _135_
*1531 _136_
*1532 _137_
*1533 _138_
*1534 _139_
*1535 _140_
*1536 _141_
*1537 _142_
*1538 _143_
*1539 _144_
*1540 _145_
*1541 _146_
*1542 _147_
*1543 _148_
*1544 _149_
*1545 _150_
*1546 _151_
*1547 _152_
*1548 _153_
*1549 _154_
*1550 _155_
*1551 _156_
*1552 _157_
*1553 _158_
*1554 _159_
*1555 _160_
*1556 _161_
*1557 _162_
*1558 _163_
*1559 _164_
*1560 _165_
*1561 _166_
*1562 _167_
*1563 _168_
*1564 _169_
*1565 _170_
*1566 _171_
*1567 _172_
*1568 _173_
*1569 _174_
*1570 _175_
*1571 _176_
*1572 _177_
*1573 _178_
*1574 _179_
*1575 _180_
*1576 _181_
*1577 _182_
*1578 _183_
*1579 _184_
*1580 _185_
*1581 _186_
*1582 _187_
*1583 _188_
*1584 _189_
*1585 _190_
*1586 _191_
*1587 _192_
*1588 _193_
*1589 _194_
*1590 _195_
*1591 _196_
*1592 _197_
*1593 _198_
*1594 _199_
*1595 _200_
*1596 _201_
*1597 _202_
*1598 _203_
*1599 _204_
*1600 _205_
*1601 _206_
*1602 _207_
*1603 _208_
*1604 _209_
*1605 _210_
*1606 _211_
*1607 _212_
*1608 _213_
*1609 _214_
*1610 _215_
*1611 _216_
*1612 _217_
*1613 _218_
*1614 _219_
*1615 _220_
*1616 _221_
*1617 _222_
*1618 _223_
*1619 _224_
*1620 _225_
*1621 _226_
*1622 _227_
*1623 _228_
*1624 _229_
*1625 _230_
*1626 _231_
*1627 _232_
*1628 _233_
*1629 _234_
*1630 _235_
*1631 _236_
*1632 _237_
*1633 _238_
*1634 _239_
*1635 _240_
*1636 _241_
*1637 _242_
*1638 _243_
*1639 _244_
*1640 _245_
*1641 _246_
*1642 _247_
*1643 _248_
*1644 _249_
*1645 _250_
*1646 _251_
*1647 _252_
*1648 _253_
*1649 _254_
*1650 _255_
*1651 _256_
*1652 _257_
*1653 _258_
*1654 _259_
*1655 _260_
*1656 _261_
*1657 _262_
*1658 _263_
*1659 _264_
*1660 _265_
*1661 _266_
*1662 _267_
*1663 _268_
*1664 _269_
*1665 _270_
*1666 _271_
*1667 _272_
*1668 fanout15
*1669 fanout16
*1670 fanout17
*1671 fanout18
*1672 fanout19
*1673 fanout20
*1674 fanout21
*1675 fanout22
*1676 input1
*1677 input2
*1678 input3
*1679 input4
*1680 input5
*1681 input6
*1682 input7
*1683 input8
*1684 input9
*1685 output10
*1686 output11
*1687 output12
*1688 output13
*1689 output14

*PORTS
Clk I
In_Data[0] I
In_Data[1] I
In_Data[2] I
In_Data[3] I
In_Data[4] I
In_Data[5] I
In_Data[6] I
Out_Data[0] O
Out_Data[1] O
Out_Data[2] O
Out_Data[3] O
Out_Data[4] O
reset I

*D_NET *1 0.000712021
*CONN
*P Clk I
*I *1676:A I *D sky130_fd_sc_hd__dlymetal6s2s_1
*CAP
1 Clk 0.000356011
2 *1676:A 0.000356011
3 *1676:A *130:17 0
*RES
1 Clk *1676:A 47.3214 
*END

*D_NET *2 0.000575227
*CONN
*P In_Data[0] I
*I *1677:A I *D sky130_fd_sc_hd__clkbuf_2
*CAP
1 In_Data[0] 0.000287613
2 *1677:A 0.000287613
3 *1677:A *138:6 0
*RES
1 In_Data[0] *1677:A 48.393 
*END

*D_NET *3 0.00113707
*CONN
*P In_Data[1] I
*I *1678:A I *D sky130_fd_sc_hd__clkbuf_1
*CAP
1 In_Data[1] 0.000568533
2 *1678:A 0
3 *3:16 0.000568533
*RES
1 In_Data[1] *3:16 30.5979 
2 *3:16 *1678:A 23 
*END

*D_NET *4 0.000562131
*CONN
*P In_Data[2] I
*I *1679:A I *D sky130_fd_sc_hd__clkbuf_1
*CAP
1 In_Data[2] 0.000281066
2 *1679:A 0.000281066
*RES
1 In_Data[2] *1679:A 48.6592 
*END

*D_NET *5 0.000615694
*CONN
*P In_Data[3] I
*I *1680:A I *D sky130_fd_sc_hd__clkbuf_1
*CAP
1 In_Data[3] 0.000307847
2 *1680:A 0.000307847
*RES
1 In_Data[3] *1680:A 49.3635 
*END

*D_NET *6 0.00134176
*CONN
*P In_Data[4] I
*I *1681:A I *D sky130_fd_sc_hd__clkbuf_1
*CAP
1 In_Data[4] 0.000670881
2 *1681:A 0
3 *6:8 0.000670881
*RES
1 In_Data[4] *6:8 31.9443 
2 *6:8 *1681:A 23 
*END

*D_NET *7 0.000814843
*CONN
*P In_Data[5] I
*I *1682:A I *D sky130_fd_sc_hd__dlymetal6s2s_1
*CAP
1 In_Data[5] 0.000407421
2 *1682:A 0.000407421
*RES
1 In_Data[5] *1682:A 48.73 
*END

*D_NET *8 0.000615694
*CONN
*P In_Data[6] I
*I *1683:A I *D sky130_fd_sc_hd__dlymetal6s2s_1
*CAP
1 In_Data[6] 0.000307847
2 *1683:A 0.000307847
*RES
1 In_Data[6] *1683:A 49.3635 
*END

*D_NET *9 0.00083372
*CONN
*P Out_Data[0] O
*I *1685:X O *D sky130_fd_sc_hd__buf_2
*CAP
1 Out_Data[0] 0.00041686
2 *1685:X 0.00041686
*RES
1 *1685:X Out_Data[0] 48.9786 
*END

*D_NET *10 0.00139525
*CONN
*P Out_Data[1] O